/*---*- C++ -*-
 *
 * Greenwich OpenFOAM CFD Simulation Package
 *
 * Generated by GWpy v0.1.0.dev-8c9f512
 * Timestamp: 2015-11-25T15:41:15.449218+00:00
 *
 * 
 */

FoamFile             
{ 
    version              2.0 ;
    format               ascii ;
    class                dictionary ;
    object               "100_" ;
}

// * * * * * * * * * * * * * * * * * * * * * * * * * * * * * * * * * * * * * // 

aoa                  
( -180. -175. -170. -165. -160. -155. -150. -145. -140. -135. -130.
  -125. -120. -115. -110. -105. -100.  -95.  -90.  -85.  -80.  -75.
   -70.  -65.  -60.  -55.  -50.  -45.  -40.  -35.  -30.  -25.  -20.
   -15.  -14.  -13.  -12.  -11.  -10.   -9.   -8.   -7.   -6.   -5.
    -4.   -3.   -2.   -1.    0.    1.    2.    3.    4.    5.    6.
     7.    8.    9.   10.   11.   12.   13.   14.   15.   16.   17.
    18.   19.   20.   25.   30.   35.   40.   45.   50.   55.   60.
    65.   70.   75.   80.   85.   90.   95.  100.  105.  110.  115.
   120.  125.  130.  135.  140.  145.  150.  155.  160.  165.  170.
   175.  180. );

polars               
(
    (  0.   0.6  0.  )
    (  0.   0.6  0.  )
    (  0.   0.6  0.  )
    (  0.   0.6  0.  )
    (  0.   0.6  0.  )
    (  0.   0.6  0.  )
    (  0.   0.6  0.  )
    (  0.   0.6  0.  )
    (  0.   0.6  0.  )
    (  0.   0.6  0.  )
    (  0.   0.6  0.  )
    (  0.   0.6  0.  )
    (  0.   0.6  0.  )
    (  0.   0.6  0.  )
    (  0.   0.6  0.  )
    (  0.   0.6  0.  )
    (  0.   0.6  0.  )
    (  0.   0.6  0.  )
    (  0.   0.6  0.  )
    (  0.   0.6  0.  )
    (  0.   0.6  0.  )
    (  0.   0.6  0.  )
    (  0.   0.6  0.  )
    (  0.   0.6  0.  )
    (  0.   0.6  0.  )
    (  0.   0.6  0.  )
    (  0.   0.6  0.  )
    (  0.   0.6  0.  )
    (  0.   0.6  0.  )
    (  0.   0.6  0.  )
    (  0.   0.6  0.  )
    (  0.   0.6  0.  )
    (  0.   0.6  0.  )
    (  0.   0.6  0.  )
    (  0.   0.6  0.  )
    (  0.   0.6  0.  )
    (  0.   0.6  0.  )
    (  0.   0.6  0.  )
    (  0.   0.6  0.  )
    (  0.   0.6  0.  )
    (  0.   0.6  0.  )
    (  0.   0.6  0.  )
    (  0.   0.6  0.  )
    (  0.   0.6  0.  )
    (  0.   0.6  0.  )
    (  0.   0.6  0.  )
    (  0.   0.6  0.  )
    (  0.   0.6  0.  )
    (  0.   0.6  0.  )
    (  0.   0.6  0.  )
    (  0.   0.6  0.  )
    (  0.   0.6  0.  )
    (  0.   0.6  0.  )
    (  0.   0.6  0.  )
    (  0.   0.6  0.  )
    (  0.   0.6  0.  )
    (  0.   0.6  0.  )
    (  0.   0.6  0.  )
    (  0.   0.6  0.  )
    (  0.   0.6  0.  )
    (  0.   0.6  0.  )
    (  0.   0.6  0.  )
    (  0.   0.6  0.  )
    (  0.   0.6  0.  )
    (  0.   0.6  0.  )
    (  0.   0.6  0.  )
    (  0.   0.6  0.  )
    (  0.   0.6  0.  )
    (  0.   0.6  0.  )
    (  0.   0.6  0.  )
    (  0.   0.6  0.  )
    (  0.   0.6  0.  )
    (  0.   0.6  0.  )
    (  0.   0.6  0.  )
    (  0.   0.6  0.  )
    (  0.   0.6  0.  )
    (  0.   0.6  0.  )
    (  0.   0.6  0.  )
    (  0.   0.6  0.  )
    (  0.   0.6  0.  )
    (  0.   0.6  0.  )
    (  0.   0.6  0.  )
    (  0.   0.6  0.  )
    (  0.   0.6  0.  )
    (  0.   0.6  0.  )
    (  0.   0.6  0.  )
    (  0.   0.6  0.  )
    (  0.   0.6  0.  )
    (  0.   0.6  0.  )
    (  0.   0.6  0.  )
    (  0.   0.6  0.  )
    (  0.   0.6  0.  )
    (  0.   0.6  0.  )
    (  0.   0.6  0.  )
    (  0.   0.6  0.  )
    (  0.   0.6  0.  )
    (  0.   0.6  0.  )
    (  0.   0.6  0.  )
    (  0.   0.6  0.  )
    (  0.   0.6  0.  )
    (  0.   0.6  0.  )
);



// ************************************************************************* // 

