/*---*- C++ -*-
 *
 * Greenwich OpenFOAM CFD Simulation Package
 *
 * Generated by GWpy v0.1.0.dev-8c9f512
 * Timestamp: 2015-11-25T15:41:15.459013+00:00
 *
 * 
 */

FoamFile             
{ 
    version              2.0 ;
    format               ascii ;
    class                dictionary ;
    object               "16.1104_" ;
}

// * * * * * * * * * * * * * * * * * * * * * * * * * * * * * * * * * * * * * // 

aoa                  
( -180. -175. -170. -165. -160. -155. -150. -145. -140. -135. -130.
  -125. -120. -115. -110. -105. -100.  -95.  -90.  -85.  -80.  -75.
   -70.  -65.  -60.  -55.  -50.  -45.  -40.  -35.  -30.  -25.  -20.
   -15.  -14.  -13.  -12.  -11.  -10.   -9.   -8.   -7.   -6.   -5.
    -4.   -3.   -2.   -1.    0.    1.    2.    3.    4.    5.    6.
     7.    8.    9.   10.   11.   12.   13.   14.   15.   16.   17.
    18.   19.   20.   25.   30.   35.   40.   45.   50.   55.   60.
    65.   70.   75.   80.   85.   90.   95.  100.  105.  110.  115.
   120.  125.  130.  135.  140.  145.  150.  155.  160.  165.  170.
   175.  180. );

polars               
(
    (  -2.20000000e-02   1.18110400e-02   0.00000000e+00 )
    (   5.39000000e-01   1.76220800e-02   1.24932600e-01 )
    (   7.82200000e-01   1.26043500e-01   2.01733400e-01 )
    (   7.89000000e-01   2.78614600e-01   2.56698400e-01 )
    (   7.87900000e-01   3.96815300e-01   2.84477600e-01 )
    (   8.05100000e-01   4.79482800e-01   2.96926200e-01 )
    (   8.16000000e-01   5.51039300e-01   3.00625200e-01 )
    (   8.01800000e-01   6.31006800e-01   3.04223500e-01 )
    (   7.66100000e-01   7.19401900e-01   3.09782600e-01 )
    (   7.18000000e-01   8.11613600e-01   3.12717600e-01 )
    (   6.64900000e-01   9.03236300e-01   3.16758200e-01 )
    (   6.06000000e-01   9.90475600e-01   3.19220200e-01 )
    (   5.16324800e-01   1.07001500e+00   3.21693200e-01 )
    (   4.08331200e-01   1.13867100e+00   3.23110400e-01 )
    (   3.03668800e-01   1.19572700e+00   3.22538000e-01 )
    (   1.93165600e-01   1.24059300e+00   3.22432500e-01 )
    (   8.16071900e-02   1.27307100e+00   3.21487700e-01 )
    (  -2.22000000e-02   1.29275500e+00   3.18386400e-01 )
    (  -1.28834400e-01   1.29924900e+00   3.14445900e-01 )
    (  -2.43116800e-01   1.29275500e+00   3.09883200e-01 )
    (  -3.36889600e-01   1.27327100e+00   3.04170900e-01 )
    (  -4.99944800e-01   1.24109900e+00   2.95941400e-01 )
    (  -6.35552000e-01   1.19633800e+00   2.87439400e-01 )
    (  -7.59220800e-01   1.13917600e+00   2.78086500e-01 )
    (  -8.64454400e-01   1.07001500e+00   2.71066800e-01 )
    (  -9.56847200e-01   9.89053500e-01   2.62717500e-01 )
    (  -1.01495800e+00   8.97497700e-01   2.53457200e-01 )
    (  -1.05227500e+00   7.96752900e-01   2.41676000e-01 )
    (  -1.05598100e+00   6.88219100e-01   2.21790700e-01 )
    (  -1.01596200e+00   5.73107500e-01   1.89056900e-01 )
    (  -9.21000000e-01   4.52928900e-01   1.43943600e-01 )
    (  -7.94680600e-01   3.28755800e-01   1.06458900e-01 )
    (  -9.64395200e-01   2.00094500e-01   7.22028100e-02 )
    (  -1.19196000e+00   6.17838400e-02   4.02957100e-02 )
    (  -1.23515200e+00   4.13254300e-02   3.73093100e-02 )
    (  -1.23583400e+00   2.80419900e-02   3.01658000e-02 )
    (  -1.20533700e+00   2.04328700e-02   2.29333200e-02 )
    (  -1.15311000e+00   1.62195200e-02   1.55063600e-02 )
    (  -1.07442800e+00   1.38068000e-02   1.09193200e-02 )
    (  -9.83230200e-01   1.18785600e-02   1.12758000e-02 )
    (  -8.74169500e-01   1.04337600e-02   1.34384400e-02 )
    (  -7.75894300e-01   9.26136000e-03   1.09666800e-02 )
    (  -6.71093900e-01   8.18896000e-03   8.02252200e-03 )
    (  -5.62209800e-01   7.31656000e-03   3.62188100e-03 )
    (  -4.35446300e-01   6.16071900e-03  -8.45640400e-04 )
    (  -3.30331300e-01   5.93312000e-03  -1.81740000e-03 )
    (  -2.18956800e-01   5.68896000e-03  -3.55052000e-03 )
    (  -9.27342500e-02   5.68344000e-03  -6.77876000e-03 )
    (   2.40330300e-02   5.68896000e-03  -8.95116000e-03 )
    (   1.15385400e-01   5.69448000e-03  -1.17738800e-02 )
    (   2.66895900e-01   5.79448000e-03  -1.40242000e-02 )
    (   3.73370600e-01   5.80552000e-03  -1.71524400e-02 )
    (   4.88475500e-01   6.10000000e-03  -1.95634800e-02 )
    (   5.90055100e-01   6.61104000e-03  -2.18745200e-02 )
    (   7.38687900e-01   7.98896000e-03  -2.46475600e-02 )
    (   8.33086300e-01   9.28344000e-03  -2.52150800e-02 )
    (   9.40916000e-01   1.06276000e-02  -2.61832400e-02 )
    (   1.04409900e+00   1.21490400e-02  -2.95017200e-02 )
    (   1.14630000e+00   1.39906400e-02  -3.00348500e-02 )
    (   1.20035600e+00   1.65468700e-02  -3.33754100e-02 )
    (   1.24922500e+00   1.92515000e-02  -4.25178900e-02 )
    (   1.27186700e+00   2.32389400e-02  -4.45350900e-02 )
    (   1.29064200e+00   3.74688500e-02  -4.97480600e-02 )
    (   1.28183000e+00   7.80924600e-02  -5.26824600e-02 )
    (   1.26373500e+00   1.03678500e-01  -5.48727000e-02 )
    (   1.26253800e+00   1.29675500e-01  -5.68347000e-02 )
    (   1.27173300e+00   1.65104000e-01  -6.11642200e-02 )
    (   1.24880400e+00   2.10263900e-01  -6.25648600e-02 )
    (   1.15690600e+00   2.25685400e-01  -6.35820600e-02 )
    (   1.16665600e+00   3.21511700e-01  -8.03018300e-02 )
    (   1.12110700e+00   4.19076000e-01  -9.96982200e-02 )
    (   1.12948900e+00   5.20057600e-01  -1.51327600e-01 )
    (   1.16301000e+00   6.23584500e-01  -1.70482800e-01 )
    (   1.19289000e+00   7.28896100e-01  -1.91115900e-01 )
    (   1.19590700e+00   8.34659500e-01  -2.12399400e-01 )
    (   1.17058400e+00   9.36706800e-01  -2.32849700e-01 )
    (   1.12109800e+00   1.03029800e+00  -2.50500000e-01 )
    (   1.00131200e+00   1.11127800e+00  -2.64272400e-01 )
    (   8.59042400e-01   1.17850600e+00  -2.74966900e-01 )
    (   7.00000000e-01   1.23144400e+00  -2.84072400e-01 )
    (   5.52061600e-01   1.26942700e+00  -2.92889000e-01 )
    (   4.17889600e-01   1.29218800e+00  -3.03000000e-01 )
    (   2.89944800e-01   1.29930400e+00  -3.14800000e-01 )
    (   1.61779200e-01   1.29218800e+00  -3.25000000e-01 )
    (   2.31000000e-02   1.27208800e+00  -3.30494500e-01 )
    (  -1.02031400e-01   1.23951000e+00  -3.31694500e-01 )
    (  -2.35583300e-01   1.19474900e+00  -3.30200000e-01 )
    (  -3.55870400e-01   1.13799300e+00  -3.27494500e-01 )
    (  -4.66594400e-01   1.06954200e+00  -3.25000000e-01 )
    (  -5.88513400e-01   9.90197700e-01  -3.24000000e-01 )
    (  -6.65100000e-01   9.02863900e-01  -3.24200000e-01 )
    (  -7.16000000e-01   8.11235700e-01  -3.23204900e-01 )
    (  -7.52500000e-01   7.19118500e-01  -3.20347800e-01 )
    (  -7.80100000e-01   6.30728900e-01  -3.15339000e-01 )
    (  -8.05000000e-01   5.50944800e-01  -3.07711200e-01 )
    (  -8.28100000e-01   4.79288300e-01  -3.00715800e-01 )
    (  -8.28300000e-01   3.96620800e-01  -2.92107100e-01 )
    (  -7.79000000e-01   2.78614600e-01  -2.82208000e-01 )
    (  -6.55300000e-01   1.26238000e-01  -2.54300000e-01 )
    (  -4.40000000e-01   1.76220800e-02  -1.56300000e-01 )
    (  -2.20000000e-02   1.18110400e-02   0.00000000e+00 )
);



// ************************************************************************* // 

