/*---*- C++ -*-
 *
 * Greenwich OpenFOAM CFD Simulation Package
 *
 * Generated by GWpy v0.1.0.dev-8c9f512
 * Timestamp: 2015-11-25T15:41:15.467506+00:00
 *
 * 
 */

FoamFile             
{ 
    version              2.0 ;
    format               ascii ;
    class                dictionary ;
    object               "16.7653_" ;
}

// * * * * * * * * * * * * * * * * * * * * * * * * * * * * * * * * * * * * * // 

aoa                  
( -180. -175. -170. -165. -160. -155. -150. -145. -140. -135. -130.
  -125. -120. -115. -110. -105. -100.  -95.  -90.  -85.  -80.  -75.
   -70.  -65.  -60.  -55.  -50.  -45.  -40.  -35.  -30.  -25.  -20.
   -15.  -14.  -13.  -12.  -11.  -10.   -9.   -8.   -7.   -6.   -5.
    -4.   -3.   -2.   -1.    0.    1.    2.    3.    4.    5.    6.
     7.    8.    9.   10.   11.   12.   13.   14.   15.   16.   17.
    18.   19.   20.   25.   30.   35.   40.   45.   50.   55.   60.
    65.   70.   75.   80.   85.   90.   95.  100.  105.  110.  115.
   120.  125.  130.  135.  140.  145.  150.  155.  160.  165.  170.
   175.  180. );

polars               
(
    (  -2.20000000e-02   1.18765300e-02   0.00000000e+00 )
    (   5.39000000e-01   1.77530600e-02   1.35804000e-01 )
    (   7.82200000e-01   1.26894900e-01   2.22100900e-01 )
    (   7.89000000e-01   2.80481100e-01   2.78637600e-01 )
    (   7.87900000e-01   3.98092300e-01   3.05107000e-01 )
    (   8.05100000e-01   4.79974000e-01   3.13691700e-01 )
    (   8.16000000e-01   5.50679100e-01   3.13232000e-01 )
    (   8.01800000e-01   6.29860700e-01   3.13261200e-01 )
    (   7.66100000e-01   7.17633700e-01   3.15611200e-01 )
    (   7.18000000e-01   8.09321500e-01   3.16974500e-01 )
    (   6.64900000e-01   9.00485700e-01   3.19476000e-01 )
    (   6.06000000e-01   9.87364800e-01   3.21119400e-01 )
    (   5.24183600e-01   1.06654400e+00   3.22839300e-01 )
    (   4.10295900e-01   1.13493800e+00   3.23765300e-01 )
    (   3.01704100e-01   1.19173200e+00   3.23356600e-01 )
    (   1.94147900e-01   1.23640200e+00   3.23218300e-01 )
    (   8.52091500e-02   1.26874900e+00   3.22601000e-01 )
    (  -2.22000000e-02   1.28833400e+00   3.20678500e-01 )
    (  -1.27852100e-01   1.29479600e+00   3.18277000e-01 )
    (  -2.37877600e-01   1.28833400e+00   3.15122400e-01 )
    (  -3.36234700e-01   1.26894900e+00   3.10523400e-01 )
    (  -4.99617400e-01   1.23694000e+00   3.03898400e-01 )
    (  -6.38826500e-01   1.19240800e+00   2.97164700e-01 )
    (  -7.60530600e-01   1.13547600e+00   2.90464200e-01 )
    (  -8.55285800e-01   1.06654400e+00   2.86293200e-01 )
    (  -9.44076700e-01   9.85811800e-01   2.82397300e-01 )
    (  -1.00284200e+00   8.94517900e-01   2.77524800e-01 )
    (  -1.04441600e+00   7.94100500e-01   2.68821700e-01 )
    (  -1.04756600e+00   6.85959700e-01   2.50802800e-01 )
    (  -1.00980600e+00   5.71372000e-01   2.18462000e-01 )
    (  -9.21000000e-01   4.51913800e-01   1.70303400e-01 )
    (  -8.02277500e-01   3.28493900e-01   1.18672900e-01 )
    (  -9.07418800e-01   2.00061700e-01   6.45077200e-02 )
    (  -1.09087600e+00   6.64336400e-02   1.35757300e-02 )
    (  -1.10554700e+00   4.85948400e-02   8.29717900e-03 )
    (  -1.09247600e+00   3.54096300e-02   3.02285000e-04 )
    (  -1.05903200e+00   2.59667900e-02  -7.71607300e-03 )
    (  -1.01138900e+00   1.87081400e-02  -1.58961700e-02 )
    (  -9.46460200e-01   1.26607200e-02  -2.21859500e-02 )
    (  -8.48156800e-01   1.11581700e-02  -2.26808400e-02 )
    (  -7.38735800e-01   1.00408200e-02  -2.19262400e-02 )
    (  -6.32896600e-01   9.03214500e-03  -2.48236800e-02 )
    (  -5.23348200e-01   8.12347000e-03  -2.80298100e-02 )
    (  -4.15151700e-01   7.41479500e-03  -3.18410300e-02 )
    (  -2.95723100e-01   6.52091500e-03  -3.55226800e-02 )
    (  -1.83993500e-01   6.12959000e-03  -3.69201200e-02 )
    (  -6.44655500e-02   5.62347000e-03  -3.88497200e-02 )
    (   5.12131000e-02   5.58520500e-03  -4.16522700e-02 )
    (   1.72531900e-01   5.62347000e-03  -4.36609400e-02 )
    (   2.71906900e-01   5.66173500e-03  -4.60252300e-02 )
    (   4.08649300e-01   5.76173500e-03  -4.79808400e-02 )
    (   5.17940200e-01   5.83826500e-03  -5.06834000e-02 )
    (   6.33667200e-01   6.10000000e-03  -5.31599300e-02 )
    (   7.38685000e-01   6.67653000e-03  -5.55364600e-02 )
    (   8.67343300e-01   7.92347000e-03  -5.75563600e-02 )
    (   9.58172400e-01   9.18520500e-03  -5.73380000e-02 )
    (   1.05906000e+00   1.07913300e-02  -5.69308700e-02 )
    (   1.15739700e+00   1.30331600e-02  -5.85793500e-02 )
    (   1.24299700e+00   1.74943600e-02  -5.93089400e-02 )
    (   1.29145300e+00   2.45366700e-02  -6.11104800e-02 )
    (   1.33360900e+00   3.32009000e-02  -6.69457200e-02 )
    (   1.34819600e+00   4.36391200e-02  -6.84717400e-02 )
    (   1.35377500e+00   6.10125700e-02  -7.19819600e-02 )
    (   1.34607600e+00   9.52508700e-02  -7.39340000e-02 )
    (   1.33335100e+00   1.18381000e-01  -7.48799400e-02 )
    (   1.32504800e+00   1.41987700e-01  -7.60233100e-02 )
    (   1.32353500e+00   1.71653000e-01  -7.87483300e-02 )
    (   1.30103300e+00   2.07677100e-01  -7.95595500e-02 )
    (   1.23346400e+00   2.23818900e-01  -8.00855800e-02 )
    (   1.17647900e+00   3.20987800e-01  -9.39565200e-02 )
    (   1.10453800e+00   4.20713200e-01  -1.11551900e-01 )
    (   1.09382900e+00   5.23364800e-01  -1.51491300e-01 )
    (   1.11798600e+00   6.27644800e-01  -1.70974000e-01 )
    (   1.15071500e+00   7.32432600e-01  -1.91803600e-01 )
    (   1.16925200e+00   8.36198400e-01  -2.12988800e-01 )
    (   1.16514800e+00   9.35560700e-01  -2.33144400e-01 )
    (   1.13354100e+00   1.02672900e+00  -2.50500000e-01 )
    (   1.02095900e+00   1.10639900e+00  -2.64108700e-01 )
    (   8.71158100e-01   1.17320100e+00  -2.74770400e-01 )
    (   7.00000000e-01   1.22636900e+00  -2.83908700e-01 )
    (   5.46495000e-01   1.26484300e+00  -2.92823500e-01 )
    (   4.17234700e-01   1.28796400e+00  -3.03000000e-01 )
    (   2.89617400e-01   1.29517900e+00  -3.14800000e-01 )
    (   1.60469400e-01   1.28796400e+00  -3.25000000e-01 )
    (   2.31000000e-02   1.26786400e+00  -3.30461700e-01 )
    (  -1.14081500e-01   1.23541700e+00  -3.31661700e-01 )
    (  -2.50908000e-01   1.19088500e+00  -3.30200000e-01 )
    (  -3.72897800e-01   1.13439100e+00  -3.27461700e-01 )
    (  -4.81984600e-01   1.06623500e+00  -3.25000000e-01 )
    (  -5.91558600e-01   9.87217900e-01  -3.24000000e-01 )
    (  -6.65100000e-01   9.00277100e-01  -3.24200000e-01 )
    (  -7.16000000e-01   8.09074500e-01  -3.23827000e-01 )
    (  -7.52500000e-01   7.17448500e-01  -3.22410700e-01 )
    (  -7.80100000e-01   6.29713800e-01  -3.20316300e-01 )
    (  -8.05000000e-01   5.50617300e-01  -3.17862200e-01 )
    (  -8.28100000e-01   4.79812200e-01  -3.16826400e-01 )
    (  -8.28300000e-01   3.97930600e-01  -3.11132000e-01 )
    (  -7.79000000e-01   2.80481100e-01  -2.95306000e-01 )
    (  -6.55300000e-01   1.27056600e-01  -2.54300000e-01 )
    (  -4.40000000e-01   1.77530600e-02  -1.56300000e-01 )
    (  -2.20000000e-02   1.18765300e-02   0.00000000e+00 )
);



// ************************************************************************* // 

