/*---*- C++ -*-
 *
 * Greenwich OpenFOAM CFD Simulation Package
 *
 * Generated by GWpy v0.1.0.dev-8c9f512
 * Timestamp: 2015-11-25T15:41:15.478666+00:00
 *
 * 
 */

FoamFile             
{ 
    version              2.0 ;
    format               ascii ;
    class                dictionary ;
    object               "17.5135_" ;
}

// * * * * * * * * * * * * * * * * * * * * * * * * * * * * * * * * * * * * * // 

aoa                  
( -180. -175. -170. -165. -160. -155. -150. -145. -140. -135. -130.
  -125. -120. -115. -110. -105. -100.  -95.  -90.  -85.  -80.  -75.
   -70.  -65.  -60.  -55.  -50.  -45.  -40.  -35.  -30.  -25.  -20.
   -15.  -14.  -13.  -12.  -11.  -10.   -9.   -8.   -7.   -6.   -5.
    -4.   -3.   -2.   -1.    0.    1.    2.    3.    4.    5.    6.
     7.    8.    9.   10.   11.   12.   13.   14.   15.   16.   17.
    18.   19.   20.   25.   30.   35.   40.   45.   50.   55.   60.
    65.   70.   75.   80.   85.   90.   95.  100.  105.  110.  115.
   120.  125.  130.  135.  140.  145.  150.  155.  160.  165.  170.
   175.  180. );

polars               
(
    ( -0.022       0.01195135  0.         )
    (  0.539       0.0179027   0.1482241  )
    (  0.7822      0.1278675   0.2453699  )
    (  0.789       0.2826135   0.3037022  )
    (  0.7879      0.3995513   0.3286753  )
    (  0.8051      0.4805351   0.3328456  )
    (  0.816       0.5502676   0.3276349  )
    (  0.8018      0.6285514   0.3235863  )
    (  0.7661      0.7156135   0.3222702  )
    (  0.718       0.8067027   0.3218378  )
    (  0.6649      0.8973433   0.322581   )
    (  0.606       0.9838109   0.3232892  )
    (  0.533162    1.062578    0.3241486  )
    (  0.4125405   1.130673    0.3245135  )
    (  0.2994595   1.187168    0.3242919  )
    (  0.1952702   1.231614    0.3241162  )
    (  0.08932425  1.263811    0.323873   )
    ( -0.0222      1.283284    0.3232972  )
    ( -0.1267298   1.289708    0.322654   )
    ( -0.231892    1.283284    0.321108   )
    ( -0.3354865   1.264011    0.3177809  )
    ( -0.4992433   1.232189    0.312989   )
    ( -0.6425675   1.187919    0.3082755  )
    ( -0.762027    1.131249    0.3046052  )
    ( -0.844811    1.062578    0.3036889  )
    ( -0.9294868   0.9821082   0.3048807  )
    ( -0.9890003   0.8911136   0.3050211  )
    ( -1.035438    0.7910703   0.2998346  )
    ( -1.037952    0.6833784   0.2839481  )
    ( -1.002773    0.5693892   0.2520562  )
    ( -0.921       0.4507541   0.2004184  )
    ( -0.8109566   0.3281946   0.1326268  )
    ( -0.8423254   0.2000243   0.05571637 )
    ( -0.9753913   0.07174585 -0.01695081 )
    ( -0.9574783   0.05689985 -0.02484806 )
    ( -0.9286948   0.04382688 -0.03381561 )
    ( -0.8918841   0.03228908 -0.04273181 )
    ( -0.8494786   0.0215513  -0.05177233 )
    ( -0.8002621   0.01135137 -0.06000743 )
    ( -0.6938406   0.01033515 -0.06147498 )
    ( -0.5840082   0.0095919  -0.06232902 )
    ( -0.4695272   0.00877027 -0.06571279 )
    ( -0.3545544   0.00804865 -0.06921819 )
    ( -0.2471435   0.00752702 -0.07235604 )
    ( -0.1360947   0.00693242 -0.07513984 )
    ( -0.01680839  0.00635405 -0.07702361 )
    (  0.1120347   0.00554865 -0.07917766 )
    (  0.2156674   0.00547297 -0.08149388 )
    (  0.3421862   0.00554865 -0.08331551 )
    (  0.4507266   0.00562433 -0.08515606 )
    (  0.5705971   0.00572432 -0.08677499 )
    (  0.6831052   0.00587568 -0.08899121 )
    (  0.799543    0.0061     -0.09154256 )
    (  0.9084889   0.00675135 -0.09399391 )
    (  1.014327    0.00784865 -0.09515339 )
    (  1.101079    0.00907297 -0.09403718 )
    (  1.194036    0.01097837 -0.09205884 )
    (  1.286836    0.01404322 -0.09179941 )
    (  1.353468    0.02149723 -0.09275346 )
    (  1.395528    0.0336647  -0.09279674 )
    (  1.430014    0.04913756 -0.09485356 )
    (  1.435398    0.06694553 -0.09581843 )
    (  1.425901    0.08791034 -0.09738334 )
    (  1.419474    0.1148537  -0.09821308 )
    (  1.412885    0.1351781  -0.09773743 )
    (  1.396464    0.1560538  -0.09794556 )
    (  1.382718    0.179135   -0.09883748 )
    (  1.360702    0.2047217  -0.09897533 )
    (  1.320928    0.2216865  -0.09894021 )
    (  1.187703    0.3203892  -0.1095565  )
    (  1.085608    0.4225837  -0.1250944  )
    (  1.05309     0.5271432  -0.1516784  )
    (  1.066547    0.6322837  -0.1715351  )
    (  1.102531    0.7364729  -0.1925892  )
    (  1.138801    0.8379567  -0.2136621  )
    (  1.158938    0.9342514  -0.2334811  )
    (  1.147756    1.022651   -0.2505     )
    (  1.043405    1.100824   -0.2639216  )
    (  0.8849998   1.167141   -0.2745459  )
    (  0.7         1.22057    -0.2837216  )
    (  0.5401353   1.259606   -0.2927486  )
    (  0.4164865   1.283138   -0.303      )
    (  0.2892433   1.290465   -0.3148     )
    (  0.158973    1.283138   -0.325      )
    (  0.0231      1.263038   -0.3304243  )
    ( -0.1278484   1.230741   -0.3316243  )
    ( -0.2684159   1.18647    -0.3302     )
    ( -0.392351    1.130276   -0.3274243  )
    ( -0.4995672   1.062457   -0.325      )
    ( -0.5950378   0.9838136  -0.324      )
    ( -0.6651      0.8973216  -0.3242     )
    ( -0.716       0.8066055  -0.3245378  )
    ( -0.7525      0.7155405  -0.3247675  )
    ( -0.7801      0.628554   -0.3260026  )
    ( -0.805       0.5502433  -0.3294592  )
    ( -0.8281      0.4804108  -0.3352321  )
    ( -0.8283      0.399427   -0.3328672  )
    ( -0.779       0.2826135  -0.31027    )
    ( -0.6553      0.1279919  -0.2543     )
    ( -0.44        0.0179027  -0.1563     )
    ( -0.022       0.01195135  0.         )
);



// ************************************************************************* // 

