/*---*- C++ -*-
 *
 * Greenwich OpenFOAM CFD Simulation Package
 *
 * Generated by GWpy v0.1.0.dev-8c9f512
 * Timestamp: 2015-11-25T15:41:15.490852+00:00
 *
 * 
 */

FoamFile             
{ 
    version              2.0 ;
    format               ascii ;
    class                dictionary ;
    object               "17.8596_" ;
}

// * * * * * * * * * * * * * * * * * * * * * * * * * * * * * * * * * * * * * // 

aoa                  
( -180. -175. -170. -165. -160. -155. -150. -145. -140. -135. -130.
  -125. -120. -115. -110. -105. -100.  -95.  -90.  -85.  -80.  -75.
   -70.  -65.  -60.  -55.  -50.  -45.  -40.  -35.  -30.  -25.  -20.
   -15.  -14.  -13.  -12.  -11.  -10.   -9.   -8.   -7.   -6.   -5.
    -4.   -3.   -2.   -1.    0.    1.    2.    3.    4.    5.    6.
     7.    8.    9.   10.   11.   12.   13.   14.   15.   16.   17.
    18.   19.   20.   25.   30.   35.   40.   45.   50.   55.   60.
    65.   70.   75.   80.   85.   90.   95.  100.  105.  110.  115.
   120.  125.  130.  135.  140.  145.  150.  155.  160.  165.  170.
   175.  180. );

polars               
(
    ( -0.022       0.01198596  0.         )
    (  0.539       0.01797192  0.1539693  )
    (  0.7822      0.1283175   0.2561336  )
    (  0.789       0.2835999   0.3152966  )
    (  0.7879      0.4002262   0.3395774  )
    (  0.8051      0.4807947   0.3417057  )
    (  0.816       0.5500773   0.3342973  )
    (  0.8018      0.6279457   0.3283625  )
    (  0.7661      0.7146791   0.3253504  )
    (  0.718       0.8054914   0.3240874  )
    (  0.6649      0.8958896   0.3240173  )
    (  0.606       0.9821669   0.3242928  )
    (  0.5373152   1.060744    0.3247543  )
    (  0.4135788   1.1287      0.3248596  )
    (  0.2984212   1.185056    0.3247245  )
    (  0.1957894   1.229399    0.3245315  )
    (  0.0912278   1.261527    0.3244613  )
    ( -0.0222      1.280948    0.3245086  )
    ( -0.1262106   1.287355    0.3246787  )
    ( -0.2291232   1.280948    0.3238768  )
    ( -0.3351404   1.261727    0.3211381  )
    ( -0.4990702   1.229992    0.3171941  )
    ( -0.644298    1.185842    0.3134151  )
    ( -0.7627192   1.129293    0.3111464  )
    ( -0.8399656   1.060744    0.3117357  )
    ( -0.9227378   0.980395    0.315281   )
    ( -0.9825974   0.8895388   0.3177403  )
    ( -1.031285    0.7896686   0.3141804  )
    ( -1.033504    0.6821844   0.2992803  )
    ( -0.9995198   0.568472    0.267596   )
    ( -0.921       0.4502176   0.2143489  )
    ( -0.8149714   0.3280562   0.1390815  )
    ( -0.8122148   0.200007    0.0516497  )
    ( -0.9219707   0.07420316 -0.03107168 )
    ( -0.8889852   0.06074156 -0.04018028 )
    ( -0.8529335   0.0477205  -0.04959776 )
    ( -0.8145654   0.03521362 -0.05892928 )
    ( -0.7745825   0.02286648 -0.06836782 )
    ( -0.7326342   0.0107457  -0.07750279 )
    ( -0.6224575   0.00995444 -0.07942025 )
    ( -0.5124347   0.00938424 -0.0810184  )
    ( -0.3939563   0.00864914 -0.08462715 )
    ( -0.2764742   0.00801404 -0.08827098 )
    ( -0.1694268   0.00757894 -0.09109735 )
    ( -0.06225431  0.00712278 -0.09346583 )
    (  0.06052762  0.00645788 -0.09557457 )
    (  0.1936797   0.00551404 -0.09783245 )
    (  0.2917401   0.00542106 -0.0999237  )
    (  0.4206643   0.00551404 -0.1016588  )
    (  0.5334444   0.00560702 -0.1032571  )
    (  0.6455104   0.00570702 -0.1047203  )
    (  0.7595067   0.00589298 -0.1067115  )
    (  0.8762733   0.0061     -0.1092975  )
    (  0.9870362   0.00678596 -0.1117834  )
    (  1.082318    0.00781404 -0.1125449  )
    (  1.167184    0.00902106 -0.1110134  )
    (  1.256472    0.0110649  -0.1083082  )
    (  1.346711    0.01451046 -0.1071662  )
    (  1.40457     0.02334886 -0.1082241  )
    (  1.44367     0.03788712 -0.1074541  )
    (  1.474609    0.05650948 -0.1077631  )
    (  1.475736    0.07772654 -0.1084684  )
    (  1.459265    0.1003526  -0.1091334  )
    (  1.453427    0.1239215  -0.109444   )
    (  1.449675    0.142948   -0.1083108  )
    (  1.429499    0.1625605  -0.1080863  )
    (  1.410094    0.182596   -0.1081303  )
    (  1.388303    0.2033546  -0.1079566  )
    (  1.361387    0.2207001  -0.1076619  )
    (  1.192894    0.3201123  -0.1167727  )
    (  1.076852    0.423449   -0.1313588  )
    (  1.034245    0.528891   -0.1517649  )
    (  1.042753    0.6344295  -0.1717947  )
    (  1.080242    0.7383418  -0.1929526  )
    (  1.124714    0.8387701  -0.2139736  )
    (  1.156065    0.9336457  -0.2336368  )
    (  1.154332    1.020765   -0.2505     )
    (  1.053788    1.098246   -0.2638351  )
    (  0.8914026   1.164337   -0.2744421  )
    (  0.7         1.217888   -0.2836351  )
    (  0.5371934   1.257183   -0.292714   )
    (  0.4161404   1.280906   -0.303      )
    (  0.2890702   1.288285   -0.3148     )
    (  0.1582808   1.280906   -0.325      )
    (  0.0231      1.260806   -0.330407   )
    ( -0.1342167   1.228577   -0.331607   )
    ( -0.2765146   1.184428   -0.3302     )
    ( -0.4013496   1.128372   -0.327407   )
    ( -0.5077006   1.060709   -0.325      )
    ( -0.5966471   0.9822388  -0.324      )
    ( -0.6651      0.8959545  -0.3242     )
    ( -0.716       0.8054633  -0.3248666  )
    ( -0.7525      0.714658   -0.3258577  )
    ( -0.7801      0.6280176  -0.328633   )
    ( -0.805       0.5500702  -0.3348238  )
    ( -0.8281      0.4806877  -0.3437462  )
    ( -0.8283      0.4001192  -0.3429214  )
    ( -0.779       0.2835999  -0.317192   )
    ( -0.6553      0.1284245  -0.2543     )
    ( -0.44        0.01797192 -0.1563     )
    ( -0.022       0.01198596  0.         )
);



// ************************************************************************* // 

