/*---*- C++ -*-
 *
 * Greenwich OpenFOAM CFD Simulation Package
 *
 * Generated by GWpy v0.1.0.dev-8c9f512
 * Timestamp: 2015-11-25T15:41:15.527921+00:00
 *
 * 
 */

FoamFile             
{ 
    version              2.0 ;
    format               ascii ;
    class                dictionary ;
    object               "18.2959_" ;
}

// * * * * * * * * * * * * * * * * * * * * * * * * * * * * * * * * * * * * * // 

aoa                  
( -180. -175. -170. -165. -160. -155. -150. -145. -140. -135. -130.
  -125. -120. -115. -110. -105. -100.  -95.  -90.  -85.  -80.  -75.
   -70.  -65.  -60.  -55.  -50.  -45.  -40.  -35.  -30.  -25.  -20.
   -15.  -14.  -13.  -12.  -11.  -10.   -9.   -8.   -7.   -6.   -5.
    -4.   -3.   -2.   -1.    0.    1.    2.    3.    4.    5.    6.
     7.    8.    9.   10.   11.   12.   13.   14.   15.   16.   17.
    18.   19.   20.   25.   30.   35.   40.   45.   50.   55.   60.
    65.   70.   75.   80.   85.   90.   95.  100.  105.  110.  115.
   120.  125.  130.  135.  140.  145.  150.  155.  160.  165.  170.
   175.  180. );

polars               
(
    ( -0.022       0.01198027  0.         )
    (  0.539       0.01796055  0.1530254  )
    (  0.7822      0.1282436   0.254365   )
    (  0.789       0.2834378   0.3133916  )
    (  0.7879      0.4001153   0.3377861  )
    (  0.8051      0.4807521   0.34025    )
    (  0.816       0.5501085   0.3332026  )
    (  0.8018      0.6280452   0.3275777  )
    (  0.7661      0.7148326   0.3248443  )
    (  0.718       0.8056905   0.3237177  )
    (  0.6649      0.8961285   0.3237813  )
    (  0.606       0.982437    0.3241279  )
    (  0.539       1.061045    0.3246548  )
    (  0.4132109   1.129024    0.3248027  )
    (  0.2987891   1.185403    0.3246534  )
    (  0.1953096   1.229763    0.3244633  )
    (  0.0908164   1.261902    0.3243646  )
    ( -0.0222      1.281332    0.3243096  )
    ( -0.1267891   1.287741    0.324346   )
    ( -0.2288877   1.281332    0.3234219  )
    ( -0.3352959   1.262102    0.3205865  )
    ( -0.4932793   1.230353    0.3165032  )
    ( -0.635038    1.186184    0.3125706  )
    ( -0.7540244   1.129615    0.3100716  )
    ( -0.8325751   1.061045    0.3104135  )
    ( -0.9155615   0.9806765   0.3135721  )
    ( -0.9787178   0.8897976   0.3156504  )
    ( -1.031967    0.7898989   0.3118233  )
    ( -1.034235    0.6823806   0.2967611  )
    ( -1.000054    0.5686227   0.2650427  )
    ( -0.921       0.4503058   0.21206    )
    ( -0.8143117   0.3280789   0.1363935  )
    ( -0.8160772   0.2000099   0.04886572 )
    ( -0.9247316   0.07535781 -0.03260808 )
    ( -0.8883045   0.0611164  -0.04223767 )
    ( -0.8494031   0.0478205  -0.05133464 )
    ( -0.8071482   0.03519667 -0.060953   )
    ( -0.7640056   0.0228082  -0.07054313 )
    ( -0.7194821   0.01072686 -0.07951052 )
    ( -0.6066676   0.00994795 -0.0820445  )
    ( -0.4959856   0.00933945 -0.08424041 )
    ( -0.3763887   0.00861973 -0.08765436 )
    ( -0.2574448   0.00799014 -0.09121628 )
    ( -0.1488582   0.00754082 -0.09402478 )
    ( -0.04262692  0.00711123 -0.09653054 )
    (  0.07898888  0.00644082 -0.09874041 )
    (  0.2117288   0.00552959 -0.1010404  )
    (  0.3139597   0.00542959 -0.1030996  )
    (  0.4436723   0.00552959 -0.1048588  )
    (  0.5568407   0.00562959 -0.1064771  )
    (  0.6643698   0.00572959 -0.1080744  )
    (  0.7793051   0.00592959 -0.1099744  )
    (  0.8975958   0.00613945 -0.1128801  )
    (  1.008258    0.00680986 -0.1155774  )
    (  1.100638    0.00779014 -0.1163056  )
    (  1.189561    0.00906904 -0.1149607  )
    (  1.274817    0.01109014 -0.1119607  )
    (  1.363504    0.0145915  -0.1106481  )
    (  1.417084    0.02347861 -0.111975   )
    (  1.45381     0.03828818 -0.1111709  )
    (  1.482077    0.05805009 -0.1108498  )
    (  1.48203     0.08075858 -0.1116865  )
    (  1.462167    0.104098   -0.111878   )
    (  1.455837    0.126446   -0.1119682  )
    (  1.45231     0.1454589  -0.1108641  )
    (  1.433145    0.1650126  -0.1100794  )
    (  1.413684    0.1842959  -0.1101147  )
    (  1.393039    0.2035792  -0.1101501  )
    (  1.372494    0.2208622  -0.1104011  )
    (  1.192041    0.3201578  -0.1197     )
    (  1.078291    0.4233068  -0.1339296  )
    (  1.037341    0.5286039  -0.1517507  )
    (  1.046662    0.634077   -0.1717521  )
    (  1.083904    0.7380347  -0.1928929  )
    (  1.127029    0.8386364  -0.2139225  )
    (  1.156537    0.9337452  -0.2336112  )
    (  1.15049     1.021075   -0.2505     )
    (  1.048926    1.09867    -0.2638493  )
    (  0.8870956   1.164798   -0.2744592  )
    (  0.6996055   1.218329   -0.2836493  )
    (  0.5365918   1.257581   -0.2927197  )
    (  0.4160987   1.281272   -0.303      )
    (  0.2892959   1.288643   -0.3148     )
    (  0.1587891   1.281272   -0.325      )
    (  0.0231      1.261172   -0.3304099  )
    ( -0.1349457   1.228933   -0.3316099  )
    ( -0.2752826   1.184764   -0.3302     )
    ( -0.3986875   1.128685   -0.3274099  )
    ( -0.5068574   1.060996   -0.325      )
    ( -0.5973      0.9824976  -0.324      )
    ( -0.6651      0.8961792  -0.3242     )
    ( -0.716       0.805651   -0.3248126  )
    ( -0.7525      0.714803   -0.3256786  )
    ( -0.7801      0.6281058  -0.3282008  )
    ( -0.805       0.5500987  -0.3339424  )
    ( -0.8281      0.4806422  -0.3423472  )
    ( -0.8283      0.4000055  -0.3412694  )
    ( -0.779       0.2834378  -0.3160546  )
    ( -0.6553      0.1283534  -0.2543     )
    ( -0.44        0.01796055 -0.1563     )
    ( -0.022       0.01198027  0.         )
);



// ************************************************************************* // 

