/*---*- C++ -*-
 *
 * Greenwich OpenFOAM CFD Simulation Package
 *
 * Generated by GWpy v0.1.0.dev-8c9f512
 * Timestamp: 2015-11-25T15:41:15.537011+00:00
 *
 * 
 */

FoamFile             
{ 
    version              2.0 ;
    format               ascii ;
    class                dictionary ;
    object               "18.4968_" ;
}

// * * * * * * * * * * * * * * * * * * * * * * * * * * * * * * * * * * * * * // 

aoa                  
( -180. -175. -170. -165. -160. -155. -150. -145. -140. -135. -130.
  -125. -120. -115. -110. -105. -100.  -95.  -90.  -85.  -80.  -75.
   -70.  -65.  -60.  -55.  -50.  -45.  -40.  -35.  -30.  -25.  -20.
   -15.  -14.  -13.  -12.  -11.  -10.   -9.   -8.   -7.   -6.   -5.
    -4.   -3.   -2.   -1.    0.    1.    2.    3.    4.    5.    6.
     7.    8.    9.   10.   11.   12.   13.   14.   15.   16.   17.
    18.   19.   20.   25.   30.   35.   40.   45.   50.   55.   60.
    65.   70.   75.   80.   85.   90.   95.  100.  105.  110.  115.
   120.  125.  130.  135.  140.  145.  150.  155.  160.  165.  170.
   175.  180. );

polars               
(
    ( -0.022       0.01196688  0.         )
    (  0.539       0.01793376  0.1508021  )
    (  0.7822      0.1280694   0.2501997  )
    (  0.789       0.2830561   0.3089048  )
    (  0.7879      0.3998542   0.3335672  )
    (  0.8051      0.4806516   0.3368213  )
    (  0.816       0.5501822   0.3306244  )
    (  0.8018      0.6282796   0.3257295  )
    (  0.7661      0.7151942   0.3236523  )
    (  0.718       0.8061592   0.3228472  )
    (  0.6649      0.896691    0.3232255  )
    (  0.606       0.9830732   0.3237395  )
    (  0.539       1.061755    0.3244204  )
    (  0.4126752   1.129788    0.3246688  )
    (  0.2993248   1.18622     0.324486   )
    (  0.1948408   1.23062     0.3243026  )
    (  0.0900128   1.262786    0.324137   )
    ( -0.0222      1.282236    0.3238408  )
    ( -0.1273248   1.288652    0.3235625  )
    ( -0.2294904   1.282236    0.3223504  )
    ( -0.3354968   1.262986    0.3192874  )
    ( -0.4893952   1.231203    0.3148759  )
    ( -0.6282744   1.186987    0.3105817  )
    ( -0.7479304   1.130371    0.3075403  )
    ( -0.828892    1.061755    0.3072996  )
    ( -0.912548    0.9813395   0.3095475  )
    ( -0.9778472   0.890407    0.3107284  )
    ( -1.033574    0.7904413   0.3062718  )
    ( -1.035956    0.6828426   0.2908279  )
    ( -1.001313    0.5689777   0.2590292  )
    ( -0.921       0.4505134   0.2066692  )
    ( -0.8127581   0.3281325   0.1327907  )
    ( -0.8269928   0.2000166   0.0480956  )
    ( -0.9413191   0.07546496 -0.02976201 )
    ( -0.9067068   0.0603128  -0.03941169 )
    ( -0.8678724   0.046816   -0.04816713 )
    ( -0.8234076   0.03437968 -0.05786585 )
    ( -0.7774524   0.0224064  -0.06744929 )
    ( -0.7291788   0.01088088 -0.07605505 )
    ( -0.6156076   0.0100484  -0.07888369 )
    ( -0.5045305   0.00936624 -0.08128049 )
    ( -0.3852751   0.00863312 -0.08450025 )
    ( -0.2660299   0.00798344 -0.08796841 )
    ( -0.1562981   0.00750064 -0.09085057 )
    ( -0.0496383   0.00705096 -0.09356393 )
    (  0.07022298  0.00640064 -0.09578049 )
    (  0.2014963   0.00554968 -0.09808049 )
    (  0.3080935   0.00544968 -0.1001799  )
    (  0.4376788   0.00554968 -0.1019792  )
    (  0.5499432   0.00564968 -0.1036779  )
    (  0.6565413   0.00574968 -0.1054091  )
    (  0.7717044   0.00594968 -0.1073091  )
    (  0.8909394   0.00616624 -0.1104225  )
    (  1.001032    0.00681656 -0.1132537  )
    (  1.09435     0.00778344 -0.114069   )
    (  1.186548    0.00911592 -0.1129651  )
    (  1.270076    0.01108344 -0.1099651  )
    (  1.358414    0.01451784 -0.1087798  )
    (  1.411506    0.02305672 -0.1102606  )
    (  1.447435    0.03739752 -0.1096574  )
    (  1.474865    0.05706568 -0.1093899  )
    (  1.475192    0.07984784 -0.1103874  )
    (  1.454948    0.1032141  -0.1105052  )
    (  1.448123    0.1256625  -0.1105886  )
    (  1.443966    0.1450236  -0.1096854  )
    (  1.426522    0.1648854  -0.1086396  )
    (  1.408581    0.1844968  -0.1089026  )
    (  1.388653    0.2041082  -0.1091657  )
    (  1.368891    0.2212439  -0.1098586  )
    (  1.190032    0.320265   -0.1197     )
    (  1.081679    0.422972   -0.1339497  )
    (  1.044634    0.5279275  -0.1517172  )
    (  1.05587     0.6332465  -0.1716516  )
    (  1.092529    0.7373115  -0.1927522  )
    (  1.13248     0.8383217  -0.2138019  )
    (  1.157649    0.9339796  -0.233551   )
    (  1.14607     1.021805   -0.2505     )
    (  1.042765    1.099667   -0.2638828  )
    (  0.882408    1.165883   -0.2744994  )
    (  0.6993376   1.219367   -0.2836828  )
    (  0.5369936   1.258518   -0.2927331  )
    (  0.4161656   1.282136   -0.303      )
    (  0.2894968   1.289487   -0.3148     )
    (  0.1593248   1.282136   -0.325      )
    (  0.0231      1.262036   -0.3304166  )
    ( -0.1336867   1.22977    -0.3316166  )
    ( -0.2722155   1.185554   -0.3302     )
    ( -0.3944016   1.129422   -0.3274166  )
    ( -0.5040448   1.061672   -0.325      )
    ( -0.5973      0.983107   -0.324      )
    ( -0.6651      0.8967083  -0.3242     )
    ( -0.716       0.806093   -0.3246854  )
    ( -0.7525      0.7151445  -0.3252567  )
    ( -0.7801      0.6283134  -0.3271829  )
    ( -0.805       0.5501656  -0.3318664  )
    ( -0.8281      0.480535   -0.3390525  )
    ( -0.8283      0.3997376  -0.3373787  )
    ( -0.779       0.2830561  -0.313376   )
    ( -0.6553      0.128186   -0.2543     )
    ( -0.44        0.01793376 -0.1563     )
    ( -0.022       0.01196688  0.         )
);



// ************************************************************************* // 

