/*---*- C++ -*-
 *
 * Greenwich OpenFOAM CFD Simulation Package
 *
 * Generated by GWpy v0.1.0.dev-8c9f512
 * Timestamp: 2015-11-25T15:41:15.548341+00:00
 *
 * 
 */

FoamFile             
{ 
    version              2.0 ;
    format               ascii ;
    class                dictionary ;
    object               "18.6913_" ;
}

// * * * * * * * * * * * * * * * * * * * * * * * * * * * * * * * * * * * * * // 

aoa                  
( -180. -175. -170. -165. -160. -155. -150. -145. -140. -135. -130.
  -125. -120. -115. -110. -105. -100.  -95.  -90.  -85.  -80.  -75.
   -70.  -65.  -60.  -55.  -50.  -45.  -40.  -35.  -30.  -25.  -20.
   -15.  -14.  -13.  -12.  -11.  -10.   -9.   -8.   -7.   -6.   -5.
    -4.   -3.   -2.   -1.    0.    1.    2.    3.    4.    5.    6.
     7.    8.    9.   10.   11.   12.   13.   14.   15.   16.   17.
    18.   19.   20.   25.   30.   35.   40.   45.   50.   55.   60.
    65.   70.   75.   80.   85.   90.   95.  100.  105.  110.  115.
   120.  125.  130.  135.  140.  145.  150.  155.  160.  165.  170.
   175.  180. );

polars               
(
    ( -0.022       0.01195391  0.         )
    (  0.539       0.01790783  0.1486496  )
    (  0.7822      0.1279009   0.2461671  )
    (  0.789       0.2826865   0.304561   )
    (  0.7879      0.3996013   0.3294827  )
    (  0.8051      0.4805543   0.3335018  )
    (  0.816       0.5502535   0.3281283  )
    (  0.8018      0.6285065   0.32394    )
    (  0.7661      0.7155443   0.3224983  )
    (  0.718       0.806613    0.3220043  )
    (  0.6649      0.8972356   0.3226874  )
    (  0.606       0.9836891   0.3233635  )
    (  0.539       1.062443    0.3241935  )
    (  0.4121565   1.130527    0.3245391  )
    (  0.2998435   1.187011    0.3243239  )
    (  0.194387    1.23145     0.324147   )
    (  0.0892348   1.263642    0.3239165  )
    ( -0.0222      1.283111    0.323387   )
    ( -0.1278435   1.289534    0.3228039  )
    ( -0.2300739   1.283111    0.3213131  )
    ( -0.3356913   1.263842    0.3180296  )
    ( -0.4856349   1.232026    0.3133005  )
    ( -0.6217262   1.187765    0.3086561  )
    ( -0.7420306   1.131104    0.3050896  )
    ( -0.8253262   1.062443    0.3042849  )
    ( -0.9096305   0.9819813   0.305651   )
    ( -0.9770044   0.8909969   0.3059632  )
    ( -1.03513     0.7909665   0.3008971  )
    ( -1.037622    0.68329     0.2850836  )
    ( -1.002532    0.5693213   0.2532071  )
    ( -0.921       0.4507143   0.2014501  )
    ( -0.811254    0.3281844   0.1293027  )
    ( -0.8375606   0.200023    0.04735002 )
    ( -0.9573783   0.07556869 -0.02700659 )
    ( -0.924523    0.0595348  -0.03667572 )
    ( -0.8857535   0.0458435  -0.04510051 )
    ( -0.8391492   0.03358871 -0.05487703 )
    ( -0.790471    0.0220174  -0.06445399 )
    ( -0.7385668   0.01103    -0.07270965 )
    ( -0.6242628   0.01014565 -0.07582355 )
    ( -0.5128033   0.00939217 -0.07841486 )
    ( -0.3938785   0.00864609 -0.0814466  )
    ( -0.2743415   0.00797696 -0.084824   )
    ( -0.1635011   0.00746174 -0.08777747 )
    ( -0.05642635  0.00699261 -0.09069181 )
    (  0.0617363   0.00636174 -0.09291486 )
    (  0.1915898   0.00556913 -0.09521486 )
    (  0.3024141   0.00546913 -0.09735312 )
    (  0.4318762   0.00556913 -0.09919138 )
    (  0.5432653   0.00566913 -0.1009679  )
    (  0.6489624   0.00576913 -0.1028288  )
    (  0.7643458   0.00596913 -0.1047288  )
    (  0.884495    0.00619217 -0.1080431  )
    (  0.9940363   0.00682304 -0.111004   )
    (  1.088262    0.00777696 -0.1119035  )
    (  1.18363     0.0091613  -0.1110331  )
    (  1.265485    0.01107696 -0.1080331  )
    (  1.353487    0.01444652 -0.1069709  )
    (  1.406105    0.02264827 -0.1086009  )
    (  1.441263    0.03653524 -0.1081922  )
    (  1.467882    0.05611263 -0.1079766  )
    (  1.468573    0.0789661  -0.1091296  )
    (  1.447959    0.1023583  -0.1091761  )
    (  1.440654    0.1249039  -0.1092531  )
    (  1.435888    0.1446022  -0.1085444  )
    (  1.42011     0.1647622  -0.1072457  )
    (  1.403641    0.1846913  -0.1077292  )
    (  1.384407    0.2046204  -0.1082126  )
    (  1.365403    0.2216135  -0.1093335  )
    (  1.188087    0.3203687  -0.1197     )
    (  1.08496     0.4226478  -0.1339691  )
    (  1.051694    0.5272726  -0.1516848  )
    (  1.064785    0.6324426  -0.1715544  )
    (  1.10088     0.7366113  -0.1926161  )
    (  1.137757    0.838017   -0.2136852  )
    (  1.158725    0.9342065  -0.2334926  )
    (  1.141791    1.022512   -0.2505     )
    (  1.0368      1.100634   -0.2639152  )
    (  0.8778697   1.166933   -0.2745382  )
    (  0.6990783   1.220372   -0.2837152  )
    (  0.5373826   1.259426   -0.2927461  )
    (  0.4162304   1.282973   -0.303      )
    (  0.2896913   1.290303   -0.3148     )
    (  0.1598435   1.282973   -0.325      )
    (  0.0231      1.262873   -0.330423   )
    ( -0.1324679   1.23058    -0.331623   )
    ( -0.2692462   1.186319   -0.3302     )
    ( -0.3902523   1.130135   -0.327423   )
    ( -0.5013218   1.062327   -0.325      )
    ( -0.5973      0.9836969  -0.324      )
    ( -0.6651      0.8972204  -0.3242     )
    ( -0.716       0.8065209  -0.3245622  )
    ( -0.7525      0.7154752  -0.3248483  )
    ( -0.7801      0.6285143  -0.3261974  )
    ( -0.805       0.5502304  -0.3298566  )
    ( -0.8281      0.4804313  -0.3358627  )
    ( -0.8283      0.3994783  -0.3336118  )
    ( -0.779       0.2826865  -0.3107827  )
    ( -0.6553      0.1280239  -0.2543     )
    ( -0.44        0.01790783 -0.1563     )
    ( -0.022       0.01195391  0.         )
);



// ************************************************************************* // 

