/*---*- C++ -*-
 *
 * Greenwich OpenFOAM CFD Simulation Package
 *
 * Generated by GWpy v0.1.0.dev-8c9f512
 * Timestamp: 2015-11-25T15:41:15.557817+00:00
 *
 * 
 */

FoamFile             
{ 
    version              2.0 ;
    format               ascii ;
    class                dictionary ;
    object               "18.8891_" ;
}

// * * * * * * * * * * * * * * * * * * * * * * * * * * * * * * * * * * * * * // 

aoa                  
( -180. -175. -170. -165. -160. -155. -150. -145. -140. -135. -130.
  -125. -120. -115. -110. -105. -100.  -95.  -90.  -85.  -80.  -75.
   -70.  -65.  -60.  -55.  -50.  -45.  -40.  -35.  -30.  -25.  -20.
   -15.  -14.  -13.  -12.  -11.  -10.   -9.   -8.   -7.   -6.   -5.
    -4.   -3.   -2.   -1.    0.    1.    2.    3.    4.    5.    6.
     7.    8.    9.   10.   11.   12.   13.   14.   15.   16.   17.
    18.   19.   20.   25.   30.   35.   40.   45.   50.   55.   60.
    65.   70.   75.   80.   85.   90.   95.  100.  105.  110.  115.
   120.  125.  130.  135.  140.  145.  150.  155.  160.  165.  170.
   175.  180. );

polars               
(
    ( -0.022       0.01194073  0.         )
    (  0.539       0.01788145  0.1464606  )
    (  0.7822      0.1277294   0.242066   )
    (  0.789       0.2823107   0.3001435  )
    (  0.7879      0.3993442   0.3253289  )
    (  0.8051      0.4804555   0.330126   )
    (  0.816       0.550326    0.3255899  )
    (  0.8018      0.6287373   0.3221203  )
    (  0.7661      0.7159004   0.3213247  )
    (  0.718       0.8070745   0.3211472  )
    (  0.6649      0.8977895   0.3221402  )
    (  0.606       0.9843155   0.3229811  )
    (  0.539       1.063141    0.3239627  )
    (  0.4116291   1.131279    0.3244072  )
    (  0.3003709   1.187816    0.3241591  )
    (  0.1939254   1.232293    0.3239887  )
    (  0.0884436   1.264512    0.3236924  )
    ( -0.0222      1.284001    0.3229254  )
    ( -0.1283709   1.290431    0.3220325  )
    ( -0.2306673   1.284001    0.3202581  )
    ( -0.3358891   1.264712    0.3167505  )
    ( -0.4818107   1.232864    0.3116983  )
    ( -0.615067    1.188556    0.3066979  )
    ( -0.7360306   1.131849    0.3025973  )
    ( -0.8216999   1.063141    0.301219   )
    ( -0.9066635   0.9826341   0.3016884  )
    ( -0.9761472   0.8915969   0.3011171  )
    ( -1.036713    0.7915006   0.2954312  )
    ( -1.039317    0.6837449   0.2792419  )
    ( -1.003772    0.5696707   0.2472863  )
    ( -0.921       0.4509187   0.1961425  )
    ( -0.8097243   0.3282371   0.1257555  )
    ( -0.8483077   0.2000296   0.04659179 )
    ( -0.9737099   0.07567418 -0.02420443 )
    ( -0.9426415   0.0587436  -0.03389334 )
    ( -0.9039379   0.0448545  -0.04198187 )
    ( -0.8551578   0.03278433 -0.05183751 )
    ( -0.8037103   0.0216218  -0.06140787 )
    ( -0.7481139   0.01118164 -0.0693075  )
    ( -0.6330649   0.01024455 -0.0727115  )
    ( -0.5212163   0.00941855 -0.07550061 )
    ( -0.4026278   0.00865927 -0.07834114 )
    ( -0.2827942   0.00797036 -0.08162623 )
    ( -0.1708263   0.00742218 -0.08465224 )
    ( -0.06332956  0.00693327 -0.08777097 )
    (  0.05310564  0.00632218 -0.09000061 )
    (  0.1815152   0.00558891 -0.09230061 )
    (  0.2966383   0.00548891 -0.09447843 )
    (  0.4259752   0.00558891 -0.09635624 )
    (  0.5364742   0.00568891 -0.09821188 )
    (  0.6412548   0.00578891 -0.1002046  )
    (  0.7568624   0.00598891 -0.1021046  )
    (  0.8779412   0.00621855 -0.1056233  )
    (  0.9869221   0.00682964 -0.1087161  )
    (  1.082071    0.00777036 -0.1097014  )
    (  1.180664    0.00920746 -0.1090683  )
    (  1.260817    0.01107036 -0.1060683  )
    (  1.348476    0.014374   -0.1051314  )
    (  1.400613    0.02223289 -0.106913   )
    (  1.434986    0.03565833 -0.1067021  )
    (  1.460781    0.05514342 -0.1065392  )
    (  1.461841    0.07806941 -0.1078505  )
    (  1.440852    0.101488   -0.1078245  )
    (  1.433059    0.1241325  -0.1078949  )
    (  1.427673    0.1441736  -0.107384   )
    (  1.413589    0.1646369  -0.1058281  )
    (  1.398617    0.1848891  -0.1065358  )
    (  1.380088    0.2051413  -0.1072434  )
    (  1.361856    0.2219893  -0.1087994  )
    (  1.186109    0.3204742  -0.1197     )
    (  1.088296    0.4223182  -0.1339889  )
    (  1.058874    0.5266067  -0.1516518  )
    (  1.07385     0.6316251  -0.1714555  )
    (  1.109372    0.7358992  -0.1924776  )
    (  1.143124    0.8377071  -0.2135665  )
    (  1.15982     0.9344373  -0.2334333  )
    (  1.13744     1.02323    -0.2505     )
    (  1.030734    1.101616   -0.2639482  )
    (  0.8732544   1.168001   -0.2745778  )
    (  0.6988145   1.221394   -0.2837482  )
    (  0.5377782   1.260349   -0.2927593  )
    (  0.4162964   1.283823   -0.303      )
    (  0.2898891   1.291134   -0.3148     )
    (  0.1603709   1.283823   -0.325      )
    (  0.0231      1.263723   -0.3304296  )
    ( -0.1312283   1.231405   -0.3316296  )
    ( -0.2662264   1.187097   -0.3302     )
    ( -0.3860326   1.13086    -0.3274296  )
    ( -0.4985526   1.062993   -0.325      )
    ( -0.5973      0.9842969  -0.324      )
    ( -0.6651      0.8977413  -0.3242     )
    ( -0.716       0.8069561  -0.3244369  )
    ( -0.7525      0.7158114  -0.3244329  )
    ( -0.7801      0.6287187  -0.3251952  )
    ( -0.805       0.5502964  -0.3278126  )
    ( -0.8281      0.4803258  -0.3326188  )
    ( -0.8283      0.3992145  -0.3297811  )
    ( -0.779       0.2823107  -0.3081453  )
    ( -0.6553      0.1278591  -0.2543     )
    ( -0.44        0.01788145 -0.1563     )
    ( -0.022       0.01194073  0.         )
);



// ************************************************************************* // 

