/*---*- C++ -*-
 *
 * Greenwich OpenFOAM CFD Simulation Package
 *
 * Generated by GWpy v0.1.0.dev-8c9f512
 * Timestamp: 2015-11-25T15:41:15.566870+00:00
 *
 * 
 */

FoamFile             
{ 
    version              2.0 ;
    format               ascii ;
    class                dictionary ;
    object               "19.0944_" ;
}

// * * * * * * * * * * * * * * * * * * * * * * * * * * * * * * * * * * * * * // 

aoa                  
( -180. -175. -170. -165. -160. -155. -150. -145. -140. -135. -130.
  -125. -120. -115. -110. -105. -100.  -95.  -90.  -85.  -80.  -75.
   -70.  -65.  -60.  -55.  -50.  -45.  -40.  -35.  -30.  -25.  -20.
   -15.  -14.  -13.  -12.  -11.  -10.   -9.   -8.   -7.   -6.   -5.
    -4.   -3.   -2.   -1.    0.    1.    2.    3.    4.    5.    6.
     7.    8.    9.   10.   11.   12.   13.   14.   15.   16.   17.
    18.   19.   20.   25.   30.   35.   40.   45.   50.   55.   60.
    65.   70.   75.   80.   85.   90.   95.  100.  105.  110.  115.
   120.  125.  130.  135.  140.  145.  150.  155.  160.  165.  170.
   175.  180. );

polars               
(
    ( -0.022       0.01192704  0.         )
    (  0.539       0.01785408  0.1441886  )
    (  0.7822      0.1275515   0.2378094  )
    (  0.789       0.2819206   0.2955584  )
    (  0.7879      0.3990773   0.3210176  )
    (  0.8051      0.4803528   0.3266222  )
    (  0.816       0.5504013   0.3229552  )
    (  0.8018      0.6289768   0.3202315  )
    (  0.7661      0.7162699   0.3201066  )
    (  0.718       0.8075536   0.3202576  )
    (  0.6649      0.8983643   0.3215722  )
    (  0.606       0.9849656   0.3225842  )
    (  0.539       1.063867    0.3237232  )
    (  0.4110816   1.132059    0.3242704  )
    (  0.3009184   1.188651    0.323988   )
    (  0.1934464   1.233169    0.3238245  )
    (  0.0876224   1.265415    0.3234597  )
    ( -0.0222      1.284925    0.3224464  )
    ( -0.1289184   1.291361    0.3212318  )
    ( -0.2312832   1.284925    0.3191632  )
    ( -0.3360944   1.265615    0.3154229  )
    ( -0.4778416   1.233733    0.3100353  )
    ( -0.6081552   1.189378    0.3046654  )
    ( -0.7298032   1.132622    0.3000106  )
    ( -0.817936    1.063867    0.2980368  )
    ( -0.903584    0.9833115   0.2975755  )
    ( -0.9752576   0.8922197   0.2960872  )
    ( -1.038355    0.7920549   0.2897581  )
    ( -1.041075    0.6842171   0.2731787  )
    ( -1.005058    0.5700334   0.2411409  )
    ( -0.921       0.4511309   0.1906336  )
    ( -0.8081366   0.3282918   0.1220738  )
    ( -0.8594624   0.2000365   0.0458048  )
    ( -0.990661    0.07578368 -0.02129599 )
    ( -0.9614471   0.0579224  -0.03100543 )
    ( -0.9228119   0.043828   -0.03874496 )
    ( -0.8717735   0.03194944 -0.04868271 )
    ( -0.8174518   0.0212112  -0.05824623 )
    ( -0.7580231   0.01133904 -0.06577632 )
    ( -0.6422008   0.0103472  -0.06948143 )
    ( -0.5299485   0.00944592 -0.07247584 )
    ( -0.411709    0.00867296 -0.07511792 )
    ( -0.2915674   0.00796352 -0.0783072  )
    ( -0.1784293   0.00738112 -0.08140847 )
    ( -0.07049457  0.00687168 -0.08473936 )
    (  0.04414766  0.00628112 -0.08697584 )
    (  0.1710585   0.00560944 -0.08927584 )
    (  0.2906435   0.00550944 -0.09149472 )
    (  0.4198504   0.00560944 -0.09341359 )
    (  0.5294256   0.00570944 -0.09535135 )
    (  0.6332549   0.00580944 -0.09748095 )
    (  0.7490952   0.00600944 -0.09938096 )
    (  0.8711389   0.00624592 -0.1031118  )
    (  0.9795381   0.00683648 -0.1063414  )
    (  1.075645    0.00776352 -0.1074157  )
    (  1.177584    0.00925536 -0.107029   )
    (  1.255972    0.01106352 -0.104029   )
    (  1.343275    0.01429872 -0.1032221  )
    (  1.394912    0.02180176 -0.1051611  )
    (  1.428471    0.03474816 -0.1051555  )
    (  1.453411    0.05413744 -0.1050474  )
    (  1.454854    0.07713871 -0.1065229  )
    (  1.433475    0.1005846  -0.1064216  )
    (  1.425175    0.1233318  -0.1064851  )
    (  1.419146    0.1437288  -0.1061795  )
    (  1.406821    0.1645069  -0.1043568  )
    (  1.393402    0.1850944  -0.1052971  )
    (  1.375606    0.2056819  -0.1062374  )
    (  1.358174    0.2223794  -0.1082451  )
    (  1.184056    0.3205837  -0.1197     )
    (  1.091759    0.421976   -0.1340095  )
    (  1.066327    0.5259156  -0.1516176  )
    (  1.08326     0.6307765  -0.1713528  )
    (  1.118186    0.7351601  -0.1923339  )
    (  1.148695    0.8373854  -0.2134434  )
    (  1.160956    0.9346768  -0.2333717  )
    (  1.132923    1.023976   -0.2505     )
    (  1.024438    1.102636   -0.2639824  )
    (  0.868464    1.16911    -0.2746189  )
    (  0.6985408   1.222454   -0.2837824  )
    (  0.5381888   1.261307   -0.2927729  )
    (  0.4163648   1.284706   -0.303      )
    (  0.2900944   1.291996   -0.3148     )
    (  0.1609184   1.284706   -0.325      )
    (  0.0231      1.264606   -0.3304365  )
    ( -0.1299418   1.23226    -0.3316365  )
    ( -0.2630922   1.187905   -0.3302     )
    ( -0.3816528   1.131613   -0.3274365  )
    ( -0.4956784   1.063684   -0.325      )
    ( -0.5973      0.9849197  -0.324      )
    ( -0.6651      0.8982819  -0.3242     )
    ( -0.716       0.8074077  -0.3243069  )
    ( -0.7525      0.7161605  -0.3240018  )
    ( -0.7801      0.6289309  -0.324155   )
    ( -0.805       0.5503648  -0.3256912  )
    ( -0.8281      0.4802163  -0.3292518  )
    ( -0.8283      0.3989408  -0.3258051  )
    ( -0.779       0.2819206  -0.305408   )
    ( -0.6553      0.127688   -0.2543     )
    ( -0.44        0.01785408 -0.1563     )
    ( -0.022       0.01192704  0.         )
);



// ************************************************************************* // 

