/*---*- C++ -*-
 *
 * Greenwich OpenFOAM CFD Simulation Package
 *
 * Generated by GWpy v0.1.0.dev-8c9f512
 * Timestamp: 2015-11-25T15:41:15.575860+00:00
 *
 * 
 */

FoamFile             
{ 
    version              2.0 ;
    format               ascii ;
    class                dictionary ;
    object               "19.3103_" ;
}

// * * * * * * * * * * * * * * * * * * * * * * * * * * * * * * * * * * * * * // 

aoa                  
( -180. -175. -170. -165. -160. -155. -150. -145. -140. -135. -130.
  -125. -120. -115. -110. -105. -100.  -95.  -90.  -85.  -80.  -75.
   -70.  -65.  -60.  -55.  -50.  -45.  -40.  -35.  -30.  -25.  -20.
   -15.  -14.  -13.  -12.  -11.  -10.   -9.   -8.   -7.   -6.   -5.
    -4.   -3.   -2.   -1.    0.    1.    2.    3.    4.    5.    6.
     7.    8.    9.   10.   11.   12.   13.   14.   15.   16.   17.
    18.   19.   20.   25.   30.   35.   40.   45.   50.   55.   60.
    65.   70.   75.   80.   85.   90.   95.  100.  105.  110.  115.
   120.  125.  130.  135.  140.  145.  150.  155.  160.  165.  170.
   175.  180. );

polars               
(
    ( -0.022       0.01191265  0.         )
    (  0.539       0.01782529  0.1417993  )
    (  0.7822      0.1273644   0.2333331  )
    (  0.789       0.2815104   0.2907366  )
    (  0.7879      0.3987966   0.3164837  )
    (  0.8051      0.4802448   0.3229375  )
    (  0.816       0.5504805   0.3201845  )
    (  0.8018      0.6292287   0.3182452  )
    (  0.7661      0.7166585   0.3188255  )
    (  0.718       0.8080574   0.319322   )
    (  0.6649      0.8989688   0.3209749  )
    (  0.606       0.9856493   0.3221667  )
    (  0.539       1.06463     0.3234713  )
    (  0.4105059   1.132879    0.3241265  )
    (  0.3014942   1.189529    0.3238081  )
    (  0.1929426   1.234091    0.3236518  )
    (  0.08675879  1.266365    0.323215   )
    ( -0.0222      1.285896    0.3219426  )
    ( -0.1294941   1.29234     0.3203898  )
    ( -0.2319309   1.285896    0.3180117  )
    ( -0.3363103   1.266565    0.3140267  )
    ( -0.4736675   1.234647    0.3082865  )
    ( -0.6008865   1.190241    0.302528   )
    ( -0.7232542   1.133435    0.2972902  )
    ( -0.8139778   1.06463     0.2946903  )
    ( -0.9003455   0.984024    0.2932503  )
    ( -0.974322    0.8928746   0.2907976  )
    ( -1.040082    0.7926378   0.283792   )
    ( -1.042925    0.6847137   0.2668025  )
    ( -1.006411    0.5704148   0.2346783  )
    ( -0.921       0.451354    0.1848403  )
    ( -0.806467    0.3283494   0.1182019  )
    ( -0.8711931   0.2000437   0.04497718 )
    ( -1.008487    0.07589883 -0.0182374  )
    ( -0.9812236   0.0570588  -0.02796843 )
    ( -0.9426603   0.0427485  -0.03534092 )
    ( -0.8892471   0.03107144 -0.04536504 )
    ( -0.8319028   0.0207794  -0.05492137 )
    ( -0.7684439   0.01150456 -0.06206283 )
    ( -0.6518084   0.01045515 -0.0660846  )
    ( -0.5391315   0.00947471 -0.0692949  )
    ( -0.421259    0.00868735 -0.07172827 )
    ( -0.3007935   0.00795632 -0.07481681 )
    ( -0.1864248   0.00733794 -0.07799724 )
    ( -0.0780295   0.00680691 -0.08155122 )
    (  0.03472721  0.00623794 -0.0837949  )
    (  0.160062    0.00563103 -0.0860949  )
    (  0.2843392   0.00553103 -0.08835696 )
    (  0.4134094   0.00563103 -0.09031902 )
    (  0.522013    0.00573103 -0.09234314 )
    (  0.6248419   0.00583103 -0.09461668 )
    (  0.7409269   0.00603103 -0.09651668 )
    (  0.8639854   0.00627471 -0.1004707  )
    (  0.9717728   0.00684368 -0.1038442  )
    (  1.068888    0.00775632 -0.105012   )
    (  1.174345    0.00930574 -0.1048843  )
    (  1.250877    0.01105632 -0.1018844  )
    (  1.337806    0.01421956 -0.1012142  )
    (  1.388917    0.02134837 -0.1033188  )
    (  1.42162     0.033791   -0.1035291  )
    (  1.44566     0.05307953 -0.1034785  )
    (  1.447506    0.07615997 -0.1051267  )
    (  1.425717    0.09963468 -0.1049463  )
    (  1.416884    0.1224898  -0.1050026  )
    (  1.410179    0.143261   -0.1049129  )
    (  1.399704    0.1643701  -0.1028095  )
    (  1.387918    0.1853103  -0.1039945  )
    (  1.370892    0.2062505  -0.1051795  )
    (  1.354302    0.2227896  -0.1076622  )
    (  1.181897    0.3206988  -0.1197     )
    (  1.0954      0.4216162  -0.134031   )
    (  1.074164    0.5251887  -0.1515816  )
    (  1.093156    0.6298841  -0.1712448  )
    (  1.127456    0.7343829  -0.1921828  )
    (  1.154553    0.8370472  -0.2133138  )
    (  1.16215     0.9349287  -0.2333069  )
    (  1.128173    1.024761   -0.2505     )
    (  1.017817    1.103708   -0.2640184  )
    (  0.8634263   1.170276   -0.274662   )
    (  0.6982529   1.22357    -0.2838184  )
    (  0.5386206   1.262315   -0.2927873  )
    (  0.4164368   1.285634   -0.303      )
    (  0.2903103   1.292903   -0.3148     )
    (  0.1614941   1.285634   -0.325      )
    (  0.0231      1.265534   -0.3304437  )
    ( -0.1285888   1.23316    -0.3316437  )
    ( -0.2597961   1.188754   -0.3302     )
    ( -0.3770469   1.132404   -0.3274437  )
    ( -0.4926558   1.064411   -0.325      )
    ( -0.5973      0.9855746  -0.324      )
    ( -0.6651      0.8988504  -0.3242     )
    ( -0.716       0.8078827  -0.3241701  )
    ( -0.7525      0.7165275  -0.3235484  )
    ( -0.7801      0.629154   -0.3230611  )
    ( -0.805       0.5504368  -0.3234602  )
    ( -0.8281      0.4801012  -0.3257111  )
    ( -0.8283      0.3986529  -0.3216238  )
    ( -0.779       0.2815104  -0.3025293  )
    ( -0.6553      0.1275081  -0.2543     )
    ( -0.44        0.01782529 -0.1563     )
    ( -0.022       0.01191265  0.         )
);



// ************************************************************************* // 

