/*---*- C++ -*-
 *
 * Greenwich OpenFOAM CFD Simulation Package
 *
 * Generated by GWpy v0.1.0.dev-8c9f512
 * Timestamp: 2015-11-25T15:41:15.584964+00:00
 *
 * 
 */

FoamFile             
{ 
    version              2.0 ;
    format               ascii ;
    class                dictionary ;
    object               "19.5387_" ;
}

// * * * * * * * * * * * * * * * * * * * * * * * * * * * * * * * * * * * * * // 

aoa                  
( -180. -175. -170. -165. -160. -155. -150. -145. -140. -135. -130.
  -125. -120. -115. -110. -105. -100.  -95.  -90.  -85.  -80.  -75.
   -70.  -65.  -60.  -55.  -50.  -45.  -40.  -35.  -30.  -25.  -20.
   -15.  -14.  -13.  -12.  -11.  -10.   -9.   -8.   -7.   -6.   -5.
    -4.   -3.   -2.   -1.    0.    1.    2.    3.    4.    5.    6.
     7.    8.    9.   10.   11.   12.   13.   14.   15.   16.   17.
    18.   19.   20.   25.   30.   35.   40.   45.   50.   55.   60.
    65.   70.   75.   80.   85.   90.   95.  100.  105.  110.  115.
   120.  125.  130.  135.  140.  145.  150.  155.  160.  165.  170.
   175.  180. );

polars               
(
    ( -0.022       0.01189742  0.         )
    (  0.539       0.01779484  0.1392717  )
    (  0.7822      0.1271665   0.2285976  )
    (  0.789       0.2810765   0.2856357  )
    (  0.7879      0.3984997   0.3116873  )
    (  0.8051      0.4801306   0.3190395  )
    (  0.816       0.5505642   0.3172534  )
    (  0.8018      0.6294951   0.316144   )
    (  0.7661      0.7170696   0.3174704  )
    (  0.718       0.8085903   0.3183323  )
    (  0.6649      0.8996083   0.3203429  )
    (  0.606       0.9863726   0.3217252  )
    (  0.539       1.065437    0.3232048  )
    (  0.4098968   1.133747    0.3239742  )
    (  0.3021032   1.190457    0.3236178  )
    (  0.1924097   1.235065    0.323469   )
    (  0.0858452   1.26737     0.3229561  )
    ( -0.0222      1.286924    0.3214097  )
    ( -0.1301032   1.293375    0.3194991  )
    ( -0.2326161   1.286924    0.3167936  )
    ( -0.3365387   1.26757     0.3125497  )
    ( -0.4692518   1.235614    0.3064365  )
    ( -0.5931971   1.191155    0.3002669  )
    ( -0.7163261   1.134296    0.2944124  )
    ( -0.8097905   1.065437    0.2911502  )
    ( -0.8969195   0.9847777   0.2886747  )
    ( -0.9733323   0.8935674   0.2852018  )
    ( -1.04191     0.7932545   0.2774806  )
    ( -1.044882    0.685239    0.2600571  )
    ( -1.007843    0.5708184   0.2278416  )
    ( -0.921       0.45159     0.1787115  )
    ( -0.8047007   0.3284103   0.114106   )
    ( -0.8836027   0.2000513   0.04410165 )
    ( -1.027345    0.07602064 -0.01500175 )
    ( -1.002145    0.0561452  -0.02475562 )
    ( -0.9636579   0.0416065  -0.03173983 )
    ( -0.9077321   0.03014262 -0.04185531 )
    ( -0.8471903   0.0203226  -0.05140401 )
    ( -0.7794679   0.01167967 -0.05813436 )
    ( -0.6619722   0.01056935 -0.06249112 )
    ( -0.548846    0.00950516 -0.06592982 )
    ( -0.4313618   0.00870258 -0.06814241 )
    ( -0.3105538   0.00794871 -0.07112435 )
    ( -0.1948832   0.00729226 -0.07438854 )
    ( -0.08600063  0.00673839 -0.07817853 )
    (  0.02476139  0.00619226 -0.08042982 )
    (  0.1484289   0.00565387 -0.08272982 )
    (  0.27767     0.00555387 -0.08503756 )
    (  0.4065954   0.00565387 -0.0870453  )
    (  0.5141712   0.00575387 -0.08916078 )
    (  0.615942    0.00585387 -0.09158658 )
    (  0.7322859   0.00605387 -0.09348658 )
    (  0.8564178   0.00630516 -0.09767657 )
    (  0.9635581   0.00685129 -0.1012024  )
    (  1.061739    0.00774871 -0.1024691  )
    (  1.17092     0.00935903 -0.1026156  )
    (  1.245487    0.01104871 -0.09961558 )
    (  1.33202     0.01413581 -0.09909009 )
    (  1.382575    0.02086873 -0.1013698  )
    (  1.414372    0.03277843 -0.1018085  )
    (  1.437461    0.05196037 -0.1018188  )
    (  1.439733    0.07512455 -0.1036497  )
    (  1.417509    0.09862972 -0.1033856  )
    (  1.408114    0.1215991  -0.1034343  )
    (  1.400693    0.1427661  -0.103573   )
    (  1.392174    0.1642255  -0.1011726  )
    (  1.382117    0.1855387  -0.1026165  )
    (  1.365905    0.2068519  -0.1040604  )
    (  1.350206    0.2232235  -0.1070455  )
    (  1.179613    0.3208206  -0.1197     )
    (  1.099253    0.4212355  -0.1340539  )
    (  1.082455    0.5244197  -0.1515436  )
    (  1.103624    0.62894    -0.1711306  )
    (  1.137262    0.7335607  -0.1920229  )
    (  1.16075     0.8366894  -0.2131768  )
    (  1.163414    0.9351951  -0.2332384  )
    (  1.123149    1.025591   -0.2505     )
    (  1.010813    1.104842   -0.2640564  )
    (  0.858097    1.171509   -0.2747077  )
    (  0.6979484   1.22475    -0.2838565  )
    (  0.5390774   1.263381   -0.2928026  )
    (  0.4165129   1.286616   -0.303      )
    (  0.2905387   1.293862   -0.3148     )
    (  0.1621032   1.286616   -0.325      )
    (  0.0231      1.266516   -0.3304513  )
    ( -0.1271575   1.234111   -0.3316513  )
    ( -0.2563092   1.189652   -0.3302     )
    ( -0.3721744   1.133242   -0.3274513  )
    ( -0.4894582   1.06518    -0.325      )
    ( -0.5973      0.9862674  -0.324      )
    ( -0.6651      0.8994519  -0.3242     )
    ( -0.716       0.8083851  -0.3240255  )
    ( -0.7525      0.7169158  -0.3230687  )
    ( -0.7801      0.62939    -0.3219039  )
    ( -0.805       0.5505129  -0.3211001  )
    ( -0.8281      0.4799794  -0.3219653  )
    ( -0.8283      0.3983484  -0.3172005  )
    ( -0.779       0.2810765  -0.299484   )
    ( -0.6553      0.1273178  -0.2543     )
    ( -0.44        0.01779484 -0.1563     )
    ( -0.022       0.01189742  0.         )
);



// ************************************************************************* // 

