/*---*- C++ -*-
 *
 * Greenwich OpenFOAM CFD Simulation Package
 *
 * Generated by GWpy v0.1.0.dev-8c9f512
 * Timestamp: 2015-11-25T15:41:15.594022+00:00
 *
 * 
 */

FoamFile             
{ 
    version              2.0 ;
    format               ascii ;
    class                dictionary ;
    object               "19.7839_" ;
}

// * * * * * * * * * * * * * * * * * * * * * * * * * * * * * * * * * * * * * // 

aoa                  
( -180. -175. -170. -165. -160. -155. -150. -145. -140. -135. -130.
  -125. -120. -115. -110. -105. -100.  -95.  -90.  -85.  -80.  -75.
   -70.  -65.  -60.  -55.  -50.  -45.  -40.  -35.  -30.  -25.  -20.
   -15.  -14.  -13.  -12.  -11.  -10.   -9.   -8.   -7.   -6.   -5.
    -4.   -3.   -2.   -1.    0.    1.    2.    3.    4.    5.    6.
     7.    8.    9.   10.   11.   12.   13.   14.   15.   16.   17.
    18.   19.   20.   25.   30.   35.   40.   45.   50.   55.   60.
    65.   70.   75.   80.   85.   90.   95.  100.  105.  110.  115.
   120.  125.  130.  135.  140.  145.  150.  155.  160.  165.  170.
   175.  180. );

polars               
(
    ( -0.022       0.01188107  0.         )
    (  0.539       0.01776215  0.1365582  )
    (  0.7822      0.126954    0.2235138  )
    (  0.789       0.2806106   0.2801596  )
    (  0.7879      0.3981809   0.3065381  )
    (  0.8051      0.4800081   0.3148548  )
    (  0.816       0.5506541   0.3141066  )
    (  0.8018      0.6297812   0.3138881  )
    (  0.7661      0.717511    0.3160155  )
    (  0.718       0.8091624   0.3172698  )
    (  0.6649      0.9002949   0.3196645  )
    (  0.606       0.987149    0.3212511  )
    (  0.539       1.066303    0.3229188  )
    (  0.4092429   1.134679    0.3238107  )
    (  0.3027571   1.191455    0.3234134  )
    (  0.1918376   1.236111    0.3232729  )
    (  0.0848644   1.268449    0.3226782  )
    ( -0.0222      1.288028    0.3208376  )
    ( -0.1307571   1.294487    0.3185428  )
    ( -0.2333517   1.288028    0.3154859  )
    ( -0.3367839   1.268649    0.3109641  )
    ( -0.4645113   1.236652    0.3044504  )
    ( -0.584942    1.192136    0.2978394  )
    ( -0.7088884   1.135219    0.2913229  )
    ( -0.8052952   1.066303    0.2873496  )
    ( -0.8932415   0.9855869   0.2837625  )
    ( -0.9722698   0.8943111   0.2791945  )
    ( -1.043871    0.7939165   0.2707049  )
    ( -1.046982    0.685803    0.2528155  )
    ( -1.009379    0.5712516   0.2205019  )
    ( -0.921       0.4518434   0.172132   )
    ( -0.8028045   0.3284757   0.1097087  )
    ( -0.8969252   0.2000595   0.04316172 )
    ( -1.047591    0.07615142 -0.01152809 )
    ( -1.024605    0.0551644  -0.02130648 )
    ( -0.9861999   0.0403805  -0.02787386 )
    ( -0.927577    0.02914548 -0.03808741 )
    ( -0.8636023   0.0198322  -0.04762795 )
    ( -0.7913029   0.01186766 -0.05391693 )
    ( -0.6728835   0.01069195 -0.05863332 )
    ( -0.5592752   0.00953785 -0.06231722 )
    ( -0.4422078   0.00871893 -0.06429278 )
    ( -0.321032    0.00794054 -0.06716029 )
    ( -0.2039637   0.00724322 -0.07051439 )
    ( -0.09455808  0.00666483 -0.07455775 )
    (  0.01406253  0.00614322 -0.07681721 )
    (  0.1359401   0.00567839 -0.07911722 )
    (  0.2705101   0.00557839 -0.081474   )
    (  0.3992803   0.00567839 -0.08353078 )
    (  0.5057527   0.00577839 -0.08574434 )
    (  0.6063874   0.00587839 -0.08833361 )
    (  0.7230091   0.00607839 -0.0902336  )
    (  0.8482935   0.00633785 -0.09467696 )
    (  0.9547391   0.00685946 -0.09836623 )
    (  1.054064    0.00774054 -0.09973925 )
    (  1.167242    0.00941624 -0.1001799  )
    (  1.2397      0.01104054 -0.09717993 )
    (  1.325808    0.0140459  -0.09680974 )
    (  1.375767    0.02035381 -0.09927739 )
    (  1.406591    0.03169138 -0.0999613  )
    (  1.428658    0.05075889 -0.100037   )
    (  1.431388    0.07401299 -0.1020641  )
    (  1.408699    0.09755085 -0.10171    )
    (  1.398698    0.1206428  -0.1017506  )
    (  1.390509    0.1422349  -0.1021345  )
    (  1.384091    0.1640702  -0.09941539 )
    (  1.375889    0.1857839  -0.1011371  )
    (  1.360551    0.2074976  -0.1028589  )
    (  1.345809    0.2236894  -0.1063835  )
    (  1.177161    0.3209514  -0.1197     )
    (  1.103388    0.4208268  -0.1340784  )
    (  1.091356    0.5235942  -0.1515027  )
    (  1.114862    0.6279265  -0.1710081  )
    (  1.147789    0.7326779  -0.1918513  )
    (  1.167403    0.8363052  -0.2130297  )
    (  1.164771    0.9354812  -0.2331648  )
    (  1.117754    1.026482   -0.2505     )
    (  1.003294    1.10606    -0.2640973  )
    (  0.8523757   1.172833   -0.2747568  )
    (  0.6976215   1.226017   -0.2838973  )
    (  0.5395678   1.264525   -0.2928189  )
    (  0.4165946   1.287671   -0.303      )
    (  0.2907839   1.294892   -0.3148     )
    (  0.1627571   1.287671   -0.325      )
    (  0.0231      1.267571   -0.3304595  )
    ( -0.1256209   1.235133   -0.3316595  )
    ( -0.2525658   1.190617   -0.3302     )
    ( -0.3669435   1.134141   -0.3274595  )
    ( -0.4860254   1.066006   -0.325      )
    ( -0.5973      0.9870111  -0.324      )
    ( -0.6651      0.9000976  -0.3242     )
    ( -0.716       0.8089246  -0.3238702  )
    ( -0.7525      0.7173326  -0.3225538  )
    ( -0.7801      0.6296434  -0.3206616  )
    ( -0.805       0.5505946  -0.3185664  )
    ( -0.8281      0.4798486  -0.317944   )
    ( -0.8283      0.3980215  -0.3124518  )
    ( -0.779       0.2806106  -0.2962147  )
    ( -0.6553      0.1271134  -0.2543     )
    ( -0.44        0.01776215 -0.1563     )
    ( -0.022       0.01188107  0.         )
);



// ************************************************************************* // 

