/*---*- C++ -*-
 *
 * Greenwich OpenFOAM CFD Simulation Package
 *
 * Generated by GWpy v0.1.0.dev-8c9f512
 * Timestamp: 2015-11-25T15:41:15.605463+00:00
 *
 * 
 */

FoamFile             
{ 
    version              2.0 ;
    format               ascii ;
    class                dictionary ;
    object               "20.0525_" ;
}

// * * * * * * * * * * * * * * * * * * * * * * * * * * * * * * * * * * * * * // 

aoa                  
( -180. -175. -170. -165. -160. -155. -150. -145. -140. -135. -130.
  -125. -120. -115. -110. -105. -100.  -95.  -90.  -85.  -80.  -75.
   -70.  -65.  -60.  -55.  -50.  -45.  -40.  -35.  -30.  -25.  -20.
   -15.  -14.  -13.  -12.  -11.  -10.   -9.   -8.   -7.   -6.   -5.
    -4.   -3.   -2.   -1.    0.    1.    2.    3.    4.    5.    6.
     7.    8.    9.   10.   11.   12.   13.   14.   15.   16.   17.
    18.   19.   20.   25.   30.   35.   40.   45.   50.   55.   60.
    65.   70.   75.   80.   85.   90.   95.  100.  105.  110.  115.
   120.  125.  130.  135.  140.  145.  150.  155.  160.  165.  170.
   175.  180. );

polars               
(
    ( -0.022       0.01186317  0.         )
    (  0.539       0.01772633  0.1335857  )
    (  0.7822      0.1267212   0.2179448  )
    (  0.789       0.2801003   0.2741608  )
    (  0.7879      0.3978318   0.3008975  )
    (  0.8051      0.4798737   0.3102707  )
    (  0.816       0.5507526   0.3106596  )
    (  0.8018      0.6300946   0.311417   )
    (  0.7661      0.7179945   0.3144218  )
    (  0.718       0.8097892   0.3161058  )
    (  0.6649      0.901047    0.3189214  )
    (  0.606       0.9879996   0.3207318  )
    (  0.539       1.067252    0.3226054  )
    (  0.4085267   1.1357      0.3236317  )
    (  0.3034733   1.192547    0.3231896  )
    (  0.1912108   1.237257    0.323058   )
    (  0.08379     1.269631    0.3223738  )
    ( -0.0222      1.289236    0.3202108  )
    ( -0.1314733   1.295705    0.3174953  )
    ( -0.2341575   1.289236    0.3140533  )
    ( -0.3370525   1.269831    0.3092272  )
    ( -0.4593183   1.237789    0.3022748  )
    ( -0.5758992   1.19321     0.2951803  )
    ( -0.7007408   1.136231    0.2879385  )
    ( -0.8003708   1.067252    0.2831863  )
    ( -0.8892125   0.9864733   0.2783816  )
    ( -0.9711059   0.8951259   0.2726138  )
    ( -1.04602     0.7946418   0.2632826  )
    ( -1.049283    0.6864207   0.2448829  )
    ( -1.011062    0.5717261   0.2124618  )
    ( -0.921       0.4521209   0.1649246  )
    ( -0.8007273   0.3285473   0.1048918  )
    ( -0.9115192   0.2000684   0.04213208 )
    ( -1.069768    0.07629467 -0.00772292 )
    ( -1.049209    0.05409    -0.01752817 )
    ( -1.010893    0.0390375  -0.02363892 )
    ( -0.9493157   0.02805317 -0.03395992 )
    ( -0.8815807   0.019295   -0.0434915  )
    ( -0.8042673   0.01207358 -0.049297   )
    ( -0.6848363   0.01082625 -0.05440734 )
    ( -0.5706996   0.00957367 -0.05835984 )
    ( -0.4540889   0.00873683 -0.06007575 )
    ( -0.3325101   0.00793158 -0.06281792 )
    ( -0.2139109   0.0071895  -0.0662705  )
    ( -0.1039322   0.00658425 -0.07059142 )
    (  0.0023426   0.0060895  -0.07285984 )
    (  0.1222593   0.00570525 -0.07515984 )
    (  0.262667    0.00560525 -0.07757033 )
    (  0.3912671   0.00570525 -0.07968084 )
    (  0.4965308   0.00580525 -0.08200184 )
    (  0.5959209   0.00590525 -0.08477017 )
    (  0.7128471   0.00610525 -0.08667018 )
    (  0.8393939   0.00637367 -0.09139109 )
    (  0.9450784   0.00686842 -0.09525942 )
    (  1.045657    0.00773158 -0.09674884 )
    (  1.163213    0.00947892 -0.09751184 )
    (  1.233361    0.01103158 -0.09451184 )
    (  1.319003    0.01394742 -0.09431175 )
    (  1.368309    0.01978975 -0.09698534 )
    (  1.398067    0.03050058 -0.09793784 )
    (  1.419015    0.04944275 -0.09808517 )
    (  1.422247    0.07279533 -0.1003272  )
    (  1.399047    0.09636901 -0.09987459 )
    (  1.388384    0.1195953  -0.09990617 )
    (  1.379353    0.1416529  -0.1005587  )
    (  1.375236    0.1639001  -0.09749041 )
    (  1.369066    0.1860525  -0.09951659 )
    (  1.354687    0.2082049  -0.1015427  )
    (  1.340992    0.2241997  -0.1056582  )
    (  1.174475    0.3210947  -0.1197     )
    (  1.107919    0.4203792  -0.1341053  )
    (  1.101106    0.5226899  -0.1514579  )
    (  1.127173    0.6268163  -0.1708737  )
    (  1.159321    0.731711   -0.1916633  )
    (  1.174691    0.8358844  -0.2128685  )
    (  1.166257    0.9357946  -0.2330843  )
    (  1.111845    1.027457   -0.2505     )
    (  0.9950567   1.107394   -0.2641421  )
    (  0.8461083   1.174284   -0.2748105  )
    (  0.6972633   1.227405   -0.2839421  )
    (  0.540105    1.265778   -0.2928368  )
    (  0.4166842   1.288826   -0.303      )
    (  0.2910525   1.296021   -0.3148     )
    (  0.1634733   1.288826   -0.325      )
    (  0.0231      1.268726   -0.3304684  )
    ( -0.1239377   1.236252   -0.3316684  )
    ( -0.2484652   1.191673   -0.3302     )
    ( -0.3612133   1.135126   -0.3274684  )
    ( -0.482265    1.06691    -0.325      )
    ( -0.5973      0.9878259  -0.324      )
    ( -0.6651      0.9008049  -0.3242     )
    ( -0.716       0.8095155  -0.3237001  )
    ( -0.7525      0.7177892  -0.3219897  )
    ( -0.7801      0.629921   -0.3193007  )
    ( -0.805       0.5506842  -0.3157908  )
    ( -0.8281      0.4797053  -0.313539   )
    ( -0.8283      0.3976634  -0.3072499  )
    ( -0.779       0.2801003  -0.2926333  )
    ( -0.6553      0.1268896  -0.2543     )
    ( -0.44        0.01772633 -0.1563     )
    ( -0.022       0.01186317  0.         )
);



// ************************************************************************* // 

