/*---*- C++ -*-
 *
 * Greenwich OpenFOAM CFD Simulation Package
 *
 * Generated by GWpy v0.1.0.dev-8c9f512
 * Timestamp: 2015-11-25T15:41:15.614805+00:00
 *
 * 
 */

FoamFile             
{ 
    version              2.0 ;
    format               ascii ;
    class                dictionary ;
    object               "20.3429_" ;
}

// * * * * * * * * * * * * * * * * * * * * * * * * * * * * * * * * * * * * * // 

aoa                  
( -180. -175. -170. -165. -160. -155. -150. -145. -140. -135. -130.
  -125. -120. -115. -110. -105. -100.  -95.  -90.  -85.  -80.  -75.
   -70.  -65.  -60.  -55.  -50.  -45.  -40.  -35.  -30.  -25.  -20.
   -15.  -14.  -13.  -12.  -11.  -10.   -9.   -8.   -7.   -6.   -5.
    -4.   -3.   -2.   -1.    0.    1.    2.    3.    4.    5.    6.
     7.    8.    9.   10.   11.   12.   13.   14.   15.   16.   17.
    18.   19.   20.   25.   30.   35.   40.   45.   50.   55.   60.
    65.   70.   75.   80.   85.   90.   95.  100.  105.  110.  115.
   120.  125.  130.  135.  140.  145.  150.  155.  160.  165.  170.
   175.  180. );

polars               
(
    ( -0.022       0.01184381  0.         )
    (  0.539       0.01768761  0.1303719  )
    (  0.7822      0.1264695   0.2119239  )
    (  0.789       0.2795485   0.2676753  )
    (  0.7879      0.3974542   0.2947991  )
    (  0.8051      0.4797285   0.3053145  )
    (  0.816       0.5508591   0.3069328  )
    (  0.8018      0.6304334   0.3087453  )
    (  0.7661      0.7185172   0.3126988  )
    (  0.718       0.8104668   0.3148474  )
    (  0.6649      0.9018601   0.318118   )
    (  0.606       0.9889192   0.3201704  )
    (  0.539       1.068278    0.3222666  )
    (  0.4077523   1.136803    0.3234381  )
    (  0.3042477   1.193728    0.3229476  )
    (  0.1905332   1.238496    0.3228257  )
    (  0.0826284   1.270909    0.3220447  )
    ( -0.0222      1.290543    0.3195332  )
    ( -0.1322477   1.297021    0.3163627  )
    ( -0.2350287   1.290543    0.3125045  )
    ( -0.3373429   1.271109    0.3073492  )
    ( -0.453704    1.239018    0.2999225  )
    ( -0.5661224   1.194372    0.2923053  )
    ( -0.6919321   1.137325    0.2842795  )
    ( -0.7950469   1.068278    0.2786851  )
    ( -0.8848565   0.9874316   0.2725639  )
    ( -0.9698474   0.8960068   0.265499   )
    ( -1.048343    0.7954258   0.2552579  )
    ( -1.051771    0.6870887   0.2363064  )
    ( -1.012882    0.5722392   0.2037692  )
    ( -0.921       0.452421    0.1571322  )
    ( -0.7984816   0.3286248   0.099684   )
    ( -0.9272975   0.2000781   0.04101888 )
    ( -1.093745    0.07644955 -0.00360893 )
    ( -1.07581     0.0529284  -0.01344322 )
    ( -1.037591    0.0375855  -0.01906029 )
    ( -0.9728187   0.02687221 -0.02949745 )
    ( -0.901018    0.0187142  -0.03901935 )
    ( -0.818284    0.01229622 -0.04430213 )
    ( -0.697759    0.01097145 -0.04983838 )
    ( -0.5830513   0.00961239 -0.05408128 )
    ( -0.4669342   0.00875619 -0.05551648 )
    ( -0.3449199   0.0079219  -0.05812313 )
    ( -0.2246654   0.00713142 -0.06168219 )
    ( -0.1140672   0.00649713 -0.06630319 )
    ( -0.0103285   0.00603142 -0.06858128 )
    (  0.1074683   0.00573429 -0.07088128 )
    (  0.2541873   0.00563429 -0.07334986 )
    (  0.3826035   0.00573429 -0.07551844 )
    (  0.4865604   0.00583429 -0.0779556  )
    (  0.584605    0.00593429 -0.08091754 )
    (  0.7018603   0.00613429 -0.08281754 )
    (  0.8297719   0.00641239 -0.08783853 )
    (  0.9346337   0.0068781  -0.09190046 )
    (  1.036567    0.0077219  -0.09351572 )
    (  1.158857    0.00954668 -0.0946272  )
    (  1.226508    0.0110219  -0.0916272  )
    (  1.311647    0.01384094 -0.09161104 )
    (  1.360245    0.01917991 -0.09450726 )
    (  1.388852    0.02921315 -0.09575016 )
    (  1.40859     0.04801979 -0.09597494 )
    (  1.412363    0.07147885 -0.09844925 )
    (  1.388612    0.09509125 -0.09789019 )
    (  1.377233    0.1184627  -0.0979121  )
    (  1.367292    0.1410237  -0.09885499 )
    (  1.365662    0.1637162  -0.09540922 )
    (  1.36169     0.1863429  -0.09776451 )
    (  1.348347    0.2089696  -0.1001198  )
    (  1.335784    0.2247515  -0.1048742  )
    (  1.171571    0.3212495  -0.1197     )
    (  1.112817    0.4198952  -0.1341343  )
    (  1.111647    0.5217122  -0.1514095  )
    (  1.140483    0.625616   -0.1707285  )
    (  1.171789    0.7306656  -0.19146    )
    (  1.182571    0.8354294  -0.2126943  )
    (  1.167864    0.9361334  -0.2329971  )
    (  1.105456    1.028512   -0.2505     )
    (  0.9861511   1.108836   -0.2641905  )
    (  0.8393323   1.175852   -0.2748686  )
    (  0.6968761   1.228905   -0.2839905  )
    (  0.5406858   1.267133   -0.2928562  )
    (  0.416781    1.290074   -0.303      )
    (  0.2913429   1.29724    -0.3148     )
    (  0.1642477   1.290074   -0.325      )
    (  0.0231      1.269974   -0.3304781  )
    ( -0.1221178   1.237462   -0.3316781  )
    ( -0.2440317   1.192815   -0.3302     )
    ( -0.3550181   1.136191   -0.3274781  )
    ( -0.4781994   1.067888   -0.325      )
    ( -0.5973      0.9887068  -0.324      )
    ( -0.6651      0.9015696  -0.3242     )
    ( -0.716       0.8101544  -0.3235162  )
    ( -0.7525      0.7182829  -0.3213799  )
    ( -0.7801      0.630221   -0.3178293  )
    ( -0.805       0.550781   -0.31279    )
    ( -0.8281      0.4795505  -0.3087765  )
    ( -0.8283      0.3972761  -0.3016258  )
    ( -0.779       0.2795485  -0.2887613  )
    ( -0.6553      0.1266476  -0.2543     )
    ( -0.44        0.01768761 -0.1563     )
    ( -0.022       0.01184381  0.         )
);



// ************************************************************************* // 

