/*---*- C++ -*-
 *
 * Greenwich OpenFOAM CFD Simulation Package
 *
 * Generated by GWpy v0.1.0.dev-8c9f512
 * Timestamp: 2015-11-25T15:41:15.624380+00:00
 *
 * 
 */

FoamFile             
{ 
    version              2.0 ;
    format               ascii ;
    class                dictionary ;
    object               "20.6967_" ;
}

// * * * * * * * * * * * * * * * * * * * * * * * * * * * * * * * * * * * * * // 

aoa                  
( -180. -175. -170. -165. -160. -155. -150. -145. -140. -135. -130.
  -125. -120. -115. -110. -105. -100.  -95.  -90.  -85.  -80.  -75.
   -70.  -65.  -60.  -55.  -50.  -45.  -40.  -35.  -30.  -25.  -20.
   -15.  -14.  -13.  -12.  -11.  -10.   -9.   -8.   -7.   -6.   -5.
    -4.   -3.   -2.   -1.    0.    1.    2.    3.    4.    5.    6.
     7.    8.    9.   10.   11.   12.   13.   14.   15.   16.   17.
    18.   19.   20.   25.   30.   35.   40.   45.   50.   55.   60.
    65.   70.   75.   80.   85.   90.   95.  100.  105.  110.  115.
   120.  125.  130.  135.  140.  145.  150.  155.  160.  165.  170.
   175.  180. );

polars               
(
    ( -0.022       0.01182022  0.         )
    (  0.539       0.01764044  0.1264565  )
    (  0.7822      0.1261629   0.2045884  )
    (  0.789       0.2788763   0.2597737  )
    (  0.7879      0.3969943   0.2873693  )
    (  0.8051      0.4795516   0.2992763  )
    (  0.816       0.5509888   0.3023924  )
    (  0.8018      0.6308461   0.3054904  )
    (  0.7661      0.7191541   0.3105996  )
    (  0.718       0.8112923   0.3133143  )
    (  0.6649      0.9028507   0.3171391  )
    (  0.606       0.9900395   0.3194864  )
    (  0.539       1.069528    0.3218538  )
    (  0.4068088   1.138147    0.3232022  )
    (  0.3051912   1.195167    0.3226528  )
    (  0.1897077   1.240006    0.3225426  )
    (  0.0812132   1.272465    0.3216437  )
    ( -0.0222      1.292135    0.3187077  )
    ( -0.1331912   1.298625    0.3149829  )
    ( -0.2360901   1.292135    0.3106176  )
    ( -0.3376967   1.272666    0.3050613  )
    ( -0.4468638   1.240516    0.2970567  )
    ( -0.5542111   1.195787    0.2888027  )
    ( -0.6812001   1.138658    0.2798216  )
    ( -0.7885605   1.069528    0.2732012  )
    ( -0.8795495   0.9885991   0.2654761  )
    ( -0.9683143   0.89708     0.2568309  )
    ( -1.051174    0.7963811   0.2454812  )
    ( -1.054802    0.6879024   0.2258575  )
    ( -1.015099    0.5728642   0.1931788  )
    ( -0.921       0.4527866   0.1476386  )
    ( -0.7957455   0.3287191   0.09333919 )
    ( -0.9465207   0.2000899   0.03966265 )
    ( -1.122957    0.07663824  0.00140324 )
    ( -1.108218    0.0515132  -0.00846643 )
    ( -1.070117    0.03581651 -0.01348205 )
    ( -1.001453    0.02543342 -0.02406072 )
    ( -0.9246991   0.0180066  -0.03357083 )
    ( -0.8353607   0.01256747 -0.03821677 )
    ( -0.7135031   0.01114835 -0.04427193 )
    ( -0.5980996   0.00965956 -0.04886863 )
    ( -0.482584    0.00877978 -0.04996182 )
    ( -0.3600389   0.00791011 -0.05240336 )
    ( -0.2377678   0.00706066 -0.05609215 )
    ( -0.1264148   0.00639099 -0.06107874 )
    ( -0.02576597  0.00596066 -0.06336863 )
    (  0.08944812  0.00576967 -0.06566864 )
    (  0.2438564   0.00566967 -0.06820797 )
    (  0.3720485   0.00576967 -0.07044731 )
    (  0.4744133   0.00586967 -0.07302599 )
    (  0.5708187   0.00596967 -0.07622379 )
    (  0.6884749   0.00616967 -0.07812379 )
    (  0.8180494   0.00645956 -0.08351038 )
    (  0.9219087   0.00688989 -0.08780818 )
    (  1.025493    0.00771011 -0.08957675 )
    (  1.15355     0.00962923 -0.09111279 )
    (  1.218158    0.01101011 -0.08811279 )
    (  1.302684    0.01371121 -0.0883207  )
    (  1.350422    0.01843693 -0.09148817 )
    (  1.377625    0.02764463 -0.09308487 )
    (  1.395888    0.04628617 -0.09340399 )
    (  1.400322    0.06987496 -0.09616135 )
    (  1.375899    0.09353453 -0.09547256 )
    (  1.363647    0.1170829  -0.09548267 )
    (  1.352597    0.1402571  -0.09677936 )
    (  1.353999    0.1634921  -0.09287366 )
    (  1.352704    0.1866967  -0.09562992 )
    (  1.340622    0.2099013  -0.09838618 )
    (  1.329439    0.2254237  -0.1039189  )
    (  1.168033    0.3214382  -0.1197     )
    (  1.118784    0.4193055  -0.1341697  )
    (  1.12449     0.5205211  -0.1513505  )
    (  1.156699    0.6241537  -0.1705516  )
    (  1.186978    0.7293919  -0.1912123  )
    (  1.19217     0.8348752  -0.212482   )
    (  1.169822    0.9365461  -0.232891   )
    (  1.097673    1.029798   -0.2505     )
    (  0.9753013   1.110594   -0.2642494  )
    (  0.831077    1.177762   -0.2749394  )
    (  0.6964044   1.230733   -0.2840495  )
    (  0.5413934   1.268785   -0.2928798  )
    (  0.4168989   1.291596   -0.303      )
    (  0.2916967   1.298726   -0.3148     )
    (  0.1651912   1.291596   -0.325      )
    (  0.0231      1.271496   -0.3304899  )
    ( -0.1199007   1.238936   -0.3316899  )
    ( -0.2386304   1.194207   -0.3302     )
    ( -0.3474704   1.137488   -0.3274899  )
    ( -0.4732462   1.069079   -0.325      )
    ( -0.5973      0.98978    -0.324      )
    ( -0.6651      0.9025013  -0.3242     )
    ( -0.716       0.8109328  -0.3232921  )
    ( -0.7525      0.7188843  -0.3206369  )
    ( -0.7801      0.6305866  -0.3160367  )
    ( -0.805       0.5508989  -0.3091341  )
    ( -0.8281      0.4793618  -0.3029741  )
    ( -0.8283      0.3968044  -0.2947739  )
    ( -0.779       0.2788763  -0.284044   )
    ( -0.6553      0.1263528  -0.2543     )
    ( -0.44        0.01764044 -0.1563     )
    ( -0.022       0.01182022  0.         )
);



// ************************************************************************* // 

