/*---*- C++ -*-
 *
 * Greenwich OpenFOAM CFD Simulation Package
 *
 * Generated by GWpy v0.1.0.dev-8c9f512
 * Timestamp: 2015-11-25T15:41:15.633447+00:00
 *
 * 
 */

FoamFile             
{ 
    version              2.0 ;
    format               ascii ;
    class                dictionary ;
    object               "21.1863_" ;
}

// * * * * * * * * * * * * * * * * * * * * * * * * * * * * * * * * * * * * * // 

aoa                  
( -180. -175. -170. -165. -160. -155. -150. -145. -140. -135. -130.
  -125. -120. -115. -110. -105. -100.  -95.  -90.  -85.  -80.  -75.
   -70.  -65.  -60.  -55.  -50.  -45.  -40.  -35.  -30.  -25.  -20.
   -15.  -14.  -13.  -12.  -11.  -10.   -9.   -8.   -7.   -6.   -5.
    -4.   -3.   -2.   -1.    0.    1.    2.    3.    4.    5.    6.
     7.    8.    9.   10.   11.   12.   13.   14.   15.   16.   17.
    18.   19.   20.   25.   30.   35.   40.   45.   50.   55.   60.
    65.   70.   75.   80.   85.   90.   95.  100.  105.  110.  115.
   120.  125.  130.  135.  140.  145.  150.  155.  160.  165.  170.
   175.  180. );

polars               
(
    ( -0.022       0.01218192  0.         )
    (  0.539       0.01794466  0.1223315  )
    (  0.7822      0.1251222   0.1968469  )
    (  0.789       0.2765814   0.2514397  )
    (  0.7879      0.3949885   0.2795329  )
    (  0.8051      0.4781099   0.2929123  )
    (  0.816       0.5501778   0.2976058  )
    (  0.8018      0.6305666   0.3020526  )
    (  0.7661      0.7192668   0.3083855  )
    (  0.718       0.8117019   0.3116973  )
    (  0.6649      0.9034904   0.3161091  )
    (  0.606       0.9908463   0.3187603  )
    (  0.5381616   1.070479    0.3214208  )
    (  0.406326    1.139216    0.3229534  )
    (  0.3057205   1.196339    0.3223441  )
    (  0.1892329   1.241267    0.3222488  )
    (  0.08032602  1.273781    0.3212255  )
    ( -0.0222      1.293491    0.317837   )
    ( -0.133674    1.3         0.3135252  )
    ( -0.2365808   1.293491    0.3086274  )
    ( -0.3379068   1.273968    0.3026529  )
    ( -0.444074    1.241735    0.2940458  )
    ( -0.5493562   1.196898    0.2851247  )
    ( -0.6767507   1.139679    0.2751337  )
    ( -0.7872383   1.070479    0.2674195  )
    ( -0.878372    0.9895161   0.2579795  )
    ( -0.9681597   0.8979627   0.2476395  )
    ( -1.051947    0.7971861   0.2350973  )
    ( -1.055625    0.6885674   0.2147622  )
    ( -1.015705    0.5732743   0.1819482  )
    ( -0.921       0.4527833   0.1376277  )
    ( -0.7950022   0.3282504   0.08671233 )
    ( -0.9554083   0.1997041   0.03823452 )
    ( -1.13277     0.07894711  0.00616109 )
    ( -1.122214    0.0530619  -0.00346411 )
    ( -1.086869    0.03735998 -0.0079222  )
    ( -1.017849    0.02719012 -0.01822631 )
    ( -0.9402493   0.0201293  -0.02738631 )
    ( -0.8479041   0.0139504  -0.03156549 )
    ( -0.7275775   0.01244109 -0.03842412 )
    ( -0.611829    0.01043123 -0.04454904 )
    ( -0.4969455   0.00924712 -0.04588465 )
    ( -0.3747046   0.00816548 -0.04864109 )
    ( -0.250714    0.00716767 -0.05267862 )
    ( -0.1382482   0.00640247 -0.05798328 )
    ( -0.03844576  0.00599781 -0.06041835 )
    (  0.07538794  0.00588849 -0.06285342 )
    (  0.2349488   0.00578384 -0.06554656 )
    (  0.3627578   0.00587918 -0.06791177 )
    (  0.4655509   0.00597452 -0.07066766 )
    (  0.5622137   0.00607918 -0.07410026 )
    (  0.6803115   0.00628384 -0.07603753 )
    (  0.8108551   0.00657918 -0.08162574 )
    (  0.9148192   0.00698383 -0.08599533 )
    (  1.020266    0.00777918 -0.08786273 )
    (  1.152917    0.00974192 -0.08966492 )
    (  1.215918    0.01108849 -0.08679999 )
    (  1.297934    0.01375836 -0.08709753 )
    (  1.342387    0.01811671 -0.09025533 )
    (  1.365098    0.02715698 -0.09201561 )
    (  1.381092    0.04555917 -0.09239698 )
    (  1.385622    0.0690589  -0.09530849 )
    (  1.361567    0.0926937  -0.09461095 )
    (  1.349378    0.1162912  -0.09464821 )
    (  1.337979    0.1399679  -0.0963367  )
    (  1.34148     0.1636446  -0.0922789  )
    (  1.342289    0.1872049  -0.095323   )
    (  1.330842    0.2106441  -0.09828794 )
    (  1.320833    0.2260466  -0.1042551  )
    (  1.168866    0.3231975  -0.1213068  )
    (  1.128422    0.4216364  -0.1358348  )
    (  1.139995    0.5231049  -0.152837   )
    (  1.175602    0.6265422  -0.171746   )
    (  1.204518    0.731835   -0.1920805  )
    (  1.204899    0.8374553  -0.2130825  )
    (  1.175575    0.9391496  -0.233317   )
    (  1.099011    1.032386   -0.2508773  )
    (  0.9696981   1.112296   -0.2647192  )
    (  0.8264685   1.179577   -0.2754425  )
    (  0.6961863   1.232421   -0.2845564  )
    (  0.5421397   1.270261   -0.2933704  )
    (  0.4166274   1.292909   -0.3034751  )
    (  0.2919068   1.3        -0.3148     )
    (  0.166       1.292909   -0.325      )
    (  0.0231      1.272805   -0.3305     )
    ( -0.1173479   1.240191   -0.3317     )
    ( -0.2338603   1.195367   -0.3302     )
    ( -0.341326    1.13853    -0.3275     )
    ( -0.4687671   1.069993   -0.325      )
    ( -0.5973      0.990551   -0.324      )
    ( -0.6651      0.9030997  -0.3242     )
    ( -0.716       0.8113112  -0.3231     )
    ( -0.7525      0.7189761  -0.32       )
    ( -0.7801      0.6302759  -0.3145     )
    ( -0.805       0.5500778  -0.306      )
    ( -0.8281      0.4779145  -0.298      )
    ( -0.8283      0.3947932  -0.2889     )
    ( -0.779       0.2765814  -0.28       )
    ( -0.6553      0.1253222  -0.2543     )
    ( -0.44        0.01794466 -0.1563     )
    ( -0.022       0.01218192  0.         )
);



// ************************************************************************* // 

