/*---*- C++ -*-
 *
 * Greenwich OpenFOAM CFD Simulation Package
 *
 * Generated by GWpy v0.1.0.dev-8c9f512
 * Timestamp: 2015-11-25T15:41:15.646909+00:00
 *
 * 
 */

FoamFile             
{ 
    version              2.0 ;
    format               ascii ;
    class                dictionary ;
    object               "21.7233_" ;
}

// * * * * * * * * * * * * * * * * * * * * * * * * * * * * * * * * * * * * * // 

aoa                  
( -180. -175. -170. -165. -160. -155. -150. -145. -140. -135. -130.
  -125. -120. -115. -110. -105. -100.  -95.  -90.  -85.  -80.  -75.
   -70.  -65.  -60.  -55.  -50.  -45.  -40.  -35.  -30.  -25.  -20.
   -15.  -14.  -13.  -12.  -11.  -10.   -9.   -8.   -7.   -6.   -5.
    -4.   -3.   -2.   -1.    0.    1.    2.    3.    4.    5.    6.
     7.    8.    9.   10.   11.   12.   13.   14.   15.   16.   17.
    18.   19.   20.   25.   30.   35.   40.   45.   50.   55.   60.
    65.   70.   75.   80.   85.   90.   95.  100.  105.  110.  115.
   120.  125.  130.  135.  140.  145.  150.  155.  160.  165.  170.
   175.  180. );

polars               
(
    (  -2.20000000e-02   1.32827700e-02   0.00000000e+00 )
    (   5.39000000e-01   1.89381100e-02   1.20116400e-01 )
    (   7.82200000e-01   1.22880200e-01   1.92658300e-01 )
    (   7.89000000e-01   2.71627500e-01   2.46942300e-01 )
    (   7.87900000e-01   3.90343500e-01   2.75304000e-01 )
    (   8.05100000e-01   4.74391200e-01   2.89488900e-01 )
    (   8.16000000e-01   5.47519700e-01   2.95028200e-01 )
    (   8.01800000e-01   6.28740800e-01   3.00186500e-01 )
    (   7.66100000e-01   7.18018300e-01   3.07190700e-01 )
    (   7.18000000e-01   8.10842700e-01   3.10824600e-01 )
    (   6.64900000e-01   9.02886300e-01   3.15558600e-01 )
    (   6.06000000e-01   9.90403300e-01   3.18357500e-01 )
    (   5.35745100e-01   1.07013000e+00   3.21192600e-01 )
    (   4.07265800e-01   1.13897500e+00   3.22819200e-01 )
    (   3.04915000e-01   1.19616500e+00   3.22183000e-01 )
    (   1.89904100e-01   1.24117300e+00   3.22101100e-01 )
    (   8.12657800e-02   1.27372800e+00   3.21010700e-01 )
    (  -2.22000000e-02   1.29346400e+00   3.17367100e-01 )
    (  -1.32734200e-01   1.30000000e+00   3.12733100e-01 )
    (  -2.35372600e-01   1.29346400e+00   3.07553400e-01 )
    (  -3.37638300e-01   1.27387300e+00   3.01364100e-01 )
    (  -4.52934500e-01   1.24154700e+00   2.92448200e-01 )
    (  -5.64794900e-01   1.19660200e+00   2.83178000e-01 )
    (  -6.90444200e-01   1.13933000e+00   2.72636700e-01 )
    (  -7.99455100e-01   1.07013000e+00   2.64304800e-01 )
    (  -8.88091700e-01   9.89274500e-01   2.53884900e-01 )
    (  -9.71502500e-01   8.97855300e-01   2.42564800e-01 )
    (  -1.04718100e+00   7.97145800e-01   2.29324500e-01 )
    (  -1.05051100e+00   6.88473400e-01   2.08600100e-01 )
    (  -1.01197300e+00   5.72911800e-01   1.75745900e-01 )
    (  -9.21000000e-01   4.51870400e-01   1.32230800e-01 )
    (  -7.99620400e-01   3.26666300e-01   8.32889500e-02 )
    (  -9.33525500e-01   1.98563000e-01   3.74693000e-02 )
    (  -1.08887000e+00   8.51360500e-02   7.49017000e-03 )
    (  -1.08247600e+00   6.10229400e-02  -1.34296100e-03 )
    (  -1.05478300e+00   4.61802200e-02  -5.68021900e-03 )
    (  -9.94355600e-01   3.58089800e-02  -1.48432000e-02 )
    (  -9.26555800e-01   2.79963600e-02  -2.30231800e-02 )
    (  -8.41862900e-01   1.72663800e-02  -2.74305800e-02 )
    (  -7.29242300e-01   1.57302200e-02  -3.53229400e-02 )
    (  -6.14218700e-01   1.25389600e-02  -4.49786400e-02 )
    (  -4.99670700e-01   1.05359200e-02  -4.78581300e-02 )
    (  -3.79618200e-01   8.93070400e-03  -5.19302200e-02 )
    (  -2.55654400e-01   7.65097100e-03  -5.66524300e-02 )
    (  -1.41846100e-01   6.69781600e-03  -6.19705100e-02 )
    (  -3.68481800e-02   6.27973300e-03  -6.47949000e-02 )
    (   7.93885900e-02   6.14356800e-03  -6.76192900e-02 )
    (   2.34801100e-01   6.02548600e-03  -7.05809400e-02 )
    (   3.62059700e-01   6.10740300e-03  -7.31341000e-02 )
    (   4.70021500e-01   6.18932100e-03  -7.60510900e-02 )
    (   5.71476900e-01   6.30740300e-03  -7.95776700e-02 )
    (   6.89856600e-01   6.52548600e-03  -8.16223300e-02 )
    (   8.19084600e-01   6.80740300e-03  -8.68883500e-02 )
    (   9.25827700e-01   7.22548600e-03  -9.08820300e-02 )
    (   1.03256400e+00   8.00740300e-03  -9.26554600e-02 )
    (   1.16420700e+00   9.86274300e-03  -9.41757300e-02 )
    (   1.23009500e+00   1.13435700e-02  -9.17001200e-02 )
    (   1.30639200e+00   1.42148100e-02  -9.17023000e-02 )
    (   1.34350100e+00   1.90296100e-02  -9.41620200e-02 )
    (   1.35673500e+00   2.96271900e-02  -9.55195400e-02 )
    (   1.36982900e+00   4.77474500e-02  -9.58472100e-02 )
    (   1.37300200e+00   7.06699000e-02  -9.85036400e-02 )
    (   1.35167300e+00   9.41167500e-02  -9.81014600e-02 )
    (   1.34182000e+00   1.17418900e-01  -9.82461200e-02 )
    (   1.33215200e+00   1.41028500e-01  -1.00189700e-01 )
    (   1.33421700e+00   1.64638100e-01  -9.68299700e-02 )
    (   1.33447600e+00   1.87795600e-01  -9.97129800e-02 )
    (   1.32174000e+00   2.10483000e-01  -1.02288600e-01 )
    (   1.31170400e+00   2.26180800e-01  -1.07584500e-01 )
    (   1.18000800e+00   3.27802300e-01  -1.25938500e-01 )
    (   1.14145800e+00   4.29812300e-01  -1.40547000e-01 )
    (   1.15295000e+00   5.33495900e-01  -1.57267200e-01 )
    (   1.19002100e+00   6.37040600e-01  -1.75625800e-01 )
    (   1.21754000e+00   7.42024600e-01  -1.95195100e-01 )
    (   1.21786800e+00   8.46262200e-01  -2.15337900e-01 )
    (   1.18732200e+00   9.45633900e-01  -2.34807200e-01 )
    (   1.12210200e+00   1.03666800e+00  -2.51964700e-01 )
    (   9.80357500e-01   1.11285900e+00  -2.65927400e-01 )
    (   8.33583700e-01   1.18008700e+00  -2.76717800e-01 )
    (   6.96723300e-01   1.23277000e+00  -2.85872100e-01 )
    (   5.42542500e-01   1.27043500e+00  -2.94726300e-01 )
    (   4.15553400e-01   1.29293600e+00  -3.04844400e-01 )
    (   2.91638300e-01   1.30000000e+00  -3.14800000e-01 )
    (   1.66000000e-01   1.29293600e+00  -3.25000000e-01 )
    (   2.31000000e-02   1.27281800e+00  -3.30500000e-01 )
    (  -1.15468400e-01   1.24016400e+00  -3.31700000e-01 )
    (  -2.33457500e-01   1.19527300e+00  -3.30200000e-01 )
    (  -3.42265800e-01   1.13832900e+00  -3.27500000e-01 )
    (  -4.68095900e-01   1.06968400e+00  -3.25000000e-01 )
    (  -5.97300000e-01   9.90121400e-01  -3.24000000e-01 )
    (  -6.65100000e-01   9.02522400e-01  -3.24200000e-01 )
    (  -7.16000000e-01   8.10478900e-01  -3.23100000e-01 )
    (  -7.52500000e-01   7.17754500e-01  -3.20000000e-01 )
    (  -7.80100000e-01   6.28477000e-01  -3.14500000e-01 )
    (  -8.05000000e-01   5.47419700e-01  -3.06000000e-01 )
    (  -8.28100000e-01   4.74209200e-01  -2.98000000e-01 )
    (  -8.28300000e-01   3.90161500e-01  -2.88900000e-01 )
    (  -7.79000000e-01   2.71627500e-01  -2.80000000e-01 )
    (  -6.55300000e-01   1.23080200e-01  -2.54300000e-01 )
    (  -4.40000000e-01   1.89381100e-02  -1.56300000e-01 )
    (  -2.20000000e-02   1.32827700e-02   0.00000000e+00 )
);



// ************************************************************************* // 

