/*---*- C++ -*-
 *
 * Greenwich OpenFOAM CFD Simulation Package
 *
 * Generated by GWpy v0.1.0.dev-8c9f512
 * Timestamp: 2015-11-25T15:41:15.655462+00:00
 *
 * 
 */

FoamFile             
{ 
    version              2.0 ;
    format               ascii ;
    class                dictionary ;
    object               "22.2876_" ;
}

// * * * * * * * * * * * * * * * * * * * * * * * * * * * * * * * * * * * * * // 

aoa                  
( -180. -175. -170. -165. -160. -155. -150. -145. -140. -135. -130.
  -125. -120. -115. -110. -105. -100.  -95.  -90.  -85.  -80.  -75.
   -70.  -65.  -60.  -55.  -50.  -45.  -40.  -35.  -30.  -25.  -20.
   -15.  -14.  -13.  -12.  -11.  -10.   -9.   -8.   -7.   -6.   -5.
    -4.   -3.   -2.   -1.    0.    1.    2.    3.    4.    5.    6.
     7.    8.    9.   10.   11.   12.   13.   14.   15.   16.   17.
    18.   19.   20.   25.   30.   35.   40.   45.   50.   55.   60.
    65.   70.   75.   80.   85.   90.   95.  100.  105.  110.  115.
   120.  125.  130.  135.  140.  145.  150.  155.  160.  165.  170.
   175.  180. );

polars               
(
    (  -2.20000000e-02   1.44395800e-02   0.00000000e+00 )
    (   5.39000000e-01   1.99820600e-02   1.17788700e-01 )
    (   7.82200000e-01   1.20524300e-01   1.88256700e-01 )
    (   7.89000000e-01   2.66421900e-01   2.42216300e-01 )
    (   7.87900000e-01   3.85462300e-01   2.70860100e-01 )
    (   8.05100000e-01   4.70483400e-01   2.85891500e-01 )
    (   8.16000000e-01   5.44726400e-01   2.92319500e-01 )
    (   8.01800000e-01   6.26822200e-01   2.98225600e-01 )
    (   7.66100000e-01   7.16706300e-01   3.05935100e-01 )
    (   7.18000000e-01   8.09939800e-01   3.09907600e-01 )
    (   6.64900000e-01   9.02251500e-01   3.14980200e-01 )
    (   6.06000000e-01   9.89937700e-01   3.17934300e-01 )
    (   5.33205800e-01   1.06976300e+00   3.20952800e-01 )
    (   4.08253300e-01   1.13872100e+00   3.22678100e-01 )
    (   3.04068600e-01   1.19598200e+00   3.22013700e-01 )
    (   1.90609500e-01   1.24107500e+00   3.21945900e-01 )
    (   8.22533000e-02   1.27367100e+00   3.20785000e-01 )
    (  -2.22000000e-02   1.29343600e+00   3.16873300e-01 )
    (  -1.31746700e-01   1.30000000e+00   3.11900800e-01 )
    (  -2.34102900e-01   1.29343600e+00   3.06424800e-01 )
    (  -3.37356200e-01   1.27377500e+00   3.00009800e-01 )
    (  -4.62245400e-01   1.24134900e+00   2.90769400e-01 )
    (  -5.81018500e-01   1.19629200e+00   2.81132500e-01 )
    (  -7.04833800e-01   1.13896300e+00   2.70012600e-01 )
    (  -8.12292900e-01   1.06976300e+00   2.61031900e-01 )
    (  -8.98305500e-01   9.89020600e-01   2.49582100e-01 )
    (  -9.75015300e-01   8.97742500e-01   2.37232200e-01 )
    (  -1.04217300e+00   7.97103500e-01   2.23258300e-01 )
    (  -1.04513600e+00   6.88374700e-01   2.02124800e-01 )
    (  -1.00805100e+00   5.72530900e-01   1.69228200e-01 )
    (  -9.21000000e-01   4.50911100e-01   1.26559600e-01 )
    (  -8.04473300e-01   3.25001600e-01   7.96915500e-02 )
    (  -9.10530300e-01   1.97363900e-01   3.66651700e-02 )
    (  -1.04273900e+00   9.16395900e-02   8.88680900e-03 )
    (  -1.04071800e+00   6.93886600e-02   8.86018400e-04 )
    (  -1.02106600e+00   5.54488200e-02  -3.32427200e-03 )
    (  -9.69667600e-01   4.48659700e-02  -1.12881200e-02 )
    (  -9.12166200e-01   3.62633300e-02  -1.84382500e-02 )
    (  -8.35514500e-01   2.07509300e-02  -2.30854800e-02 )
    (  -7.30991500e-01   1.91865500e-02  -3.20641100e-02 )
    (  -6.16729800e-01   1.47538300e-02  -4.54300800e-02 )
    (  -5.02534600e-01   1.18902400e-02  -4.99319300e-02 )
    (  -3.84781500e-01   9.73482900e-03  -5.53865500e-02 )
    (  -2.60845900e-01   8.15883900e-03  -6.08282400e-02 )
    (  -1.45626900e-01   7.00818000e-03  -6.61604300e-02 )
    (  -3.51693900e-02   6.57599000e-03  -6.93939300e-02 )
    (   8.35926200e-02   6.41161000e-03  -7.26274500e-02 )
    (   2.34645900e-01   6.27942000e-03  -7.58712400e-02 )
    (   3.61326100e-01   6.34723000e-03  -7.86219100e-02 )
    (   4.74719300e-01   6.41504000e-03  -8.17081900e-02 )
    (   5.81211100e-01   6.54723000e-03  -8.53335100e-02 )
    (   6.99887000e-01   6.77942000e-03  -8.74910400e-02 )
    (   8.27732500e-01   7.04723000e-03  -9.24184800e-02 )
    (   9.37395800e-01   7.47942000e-03  -9.60171500e-02 )
    (   1.04548600e+00   8.24723000e-03  -9.76918300e-02 )
    (   1.17607200e+00   9.98971000e-03  -9.89158400e-02 )
    (   1.24499300e+00   1.16116100e-02  -9.68493500e-02 )
    (   1.31528000e+00   1.46944600e-02  -9.65411700e-02 )
    (   1.34467200e+00   1.99889200e-02  -9.82672900e-02 )
    (   1.34794600e+00   3.22229600e-02  -9.92015900e-02 )
    (   1.35799300e+00   5.00469700e-02  -9.94728300e-02 )
    (   1.35974100e+00   7.23628000e-02  -1.01861200e-01 )
    (   1.34127600e+00   9.56121400e-02  -1.01769400e-01 )
    (   1.33387700e+00   1.18604000e-01  -1.02026900e-01 )
    (   1.32603000e+00   1.42143000e-01  -1.04238500e-01 )
    (   1.32658500e+00   1.65682000e-01  -1.01612400e-01 )
    (   1.32626500e+00   1.88416400e-01  -1.04326100e-01 )
    (   1.31217500e+00   2.10313700e-01  -1.06492600e-01 )
    (   1.30211100e+00   2.26321900e-01  -1.11083100e-01 )
    (   1.19171800e+00   3.32641200e-01  -1.30805600e-01 )
    (   1.15515600e+00   4.38403700e-01  -1.45498700e-01 )
    (   1.16656300e+00   5.44415100e-01  -1.61922700e-01 )
    (   1.20517200e+00   6.48072600e-01  -1.79702900e-01 )
    (   1.23122400e+00   7.52732200e-01  -1.98468100e-01 )
    (   1.23149500e+00   8.55516600e-01  -2.17707900e-01 )
    (   1.19966600e+00   9.52447800e-01  -2.36373100e-01 )
    (   1.14636700e+00   1.04116900e+00  -2.53107400e-01 )
    (   9.91558800e-01   1.11345200e+00  -2.67197100e-01 )
    (   8.41060700e-01   1.18062300e+00  -2.78058100e-01 )
    (   6.97287600e-01   1.23313700e+00  -2.87254600e-01 )
    (   5.42965700e-01   1.27061800e+00  -2.96151200e-01 )
    (   4.14424800e-01   1.29296400e+00  -3.06283400e-01 )
    (   2.91356200e-01   1.30000000e+00  -3.14800000e-01 )
    (   1.66000000e-01   1.29296400e+00  -3.25000000e-01 )
    (   2.31000000e-02   1.27283200e+00  -3.30500000e-01 )
    (  -1.13493400e-01   1.24013600e+00  -3.31700000e-01 )
    (  -2.33034300e-01   1.19517500e+00  -3.30200000e-01 )
    (  -3.43253300e-01   1.13811700e+00  -3.27500000e-01 )
    (  -4.67390500e-01   1.06936000e+00  -3.25000000e-01 )
    (  -5.97300000e-01   9.89669900e-01  -3.24000000e-01 )
    (  -6.65100000e-01   9.01915800e-01  -3.24200000e-01 )
    (  -7.16000000e-01   8.09604200e-01  -3.23100000e-01 )
    (  -7.52500000e-01   7.16470700e-01  -3.20000000e-01 )
    (  -7.80100000e-01   6.26586600e-01  -3.14500000e-01 )
    (  -8.05000000e-01   5.44626400e-01  -3.06000000e-01 )
    (  -8.28100000e-01   4.70315600e-01  -2.98000000e-01 )
    (  -8.28300000e-01   3.85294500e-01  -2.88900000e-01 )
    (  -7.79000000e-01   2.66421900e-01  -2.80000000e-01 )
    (  -6.55300000e-01   1.20724300e-01  -2.54300000e-01 )
    (  -4.40000000e-01   1.99820600e-02  -1.56300000e-01 )
    (  -2.20000000e-02   1.44395800e-02   0.00000000e+00 )
);



// ************************************************************************* // 

