/*---*- C++ -*-
 *
 * Greenwich OpenFOAM CFD Simulation Package
 *
 * Generated by GWpy v0.1.0.dev-8c9f512
 * Timestamp: 2015-11-25T15:41:15.666194+00:00
 *
 * 
 */

FoamFile             
{ 
    version              2.0 ;
    format               ascii ;
    class                dictionary ;
    object               "22.8783_" ;
}

// * * * * * * * * * * * * * * * * * * * * * * * * * * * * * * * * * * * * * // 

aoa                  
( -180. -175. -170. -165. -160. -155. -150. -145. -140. -135. -130.
  -125. -120. -115. -110. -105. -100.  -95.  -90.  -85.  -80.  -75.
   -70.  -65.  -60.  -55.  -50.  -45.  -40.  -35.  -30.  -25.  -20.
   -15.  -14.  -13.  -12.  -11.  -10.   -9.   -8.   -7.   -6.   -5.
    -4.   -3.   -2.   -1.    0.    1.    2.    3.    4.    5.    6.
     7.    8.    9.   10.   11.   12.   13.   14.   15.   16.   17.
    18.   19.   20.   25.   30.   35.   40.   45.   50.   55.   60.
    65.   70.   75.   80.   85.   90.   95.  100.  105.  110.  115.
   120.  125.  130.  135.  140.  145.  150.  155.  160.  165.  170.
   175.  180. );

polars               
(
    (  -2.20000000e-02   1.56505100e-02   0.00000000e+00 )
    (   5.39000000e-01   2.10748500e-02   1.15352000e-01 )
    (   7.82200000e-01   1.18058100e-01   1.83649300e-01 )
    (   7.89000000e-01   2.60972700e-01   2.37269200e-01 )
    (   7.87900000e-01   3.80352700e-01   2.66208400e-01 )
    (   8.05100000e-01   4.66392800e-01   2.82125800e-01 )
    (   8.16000000e-01   5.41802400e-01   2.89484200e-01 )
    (   8.01800000e-01   6.24813800e-01   2.96172900e-01 )
    (   7.66100000e-01   7.15332900e-01   3.04620800e-01 )
    (   7.18000000e-01   8.08994700e-01   3.08947800e-01 )
    (   6.64900000e-01   9.01586900e-01   3.14374700e-01 )
    (   6.06000000e-01   9.89450400e-01   3.17491300e-01 )
    (   5.30547700e-01   1.06937900e+00   3.20701700e-01 )
    (   4.09287000e-01   1.13845500e+00   3.22530400e-01 )
    (   3.03182500e-01   1.19579000e+00   3.21836500e-01 )
    (   1.91347900e-01   1.24097100e+00   3.21783500e-01 )
    (   8.32870200e-02   1.27361200e+00   3.20548700e-01 )
    (  -2.22000000e-02   1.29340600e+00   3.16356500e-01 )
    (  -1.30713000e-01   1.30000000e+00   3.11029500e-01 )
    (  -2.32773800e-01   1.29340600e+00   3.05243400e-01 )
    (  -3.37060800e-01   1.27367100e+00   2.98592100e-01 )
    (  -4.71992000e-01   1.24114300e+00   2.89012100e-01 )
    (  -5.98001100e-01   1.19596700e+00   2.78991200e-01 )
    (  -7.19896600e-01   1.13857900e+00   2.67265900e-01 )
    (  -8.25731300e-01   1.06937900e+00   2.57605900e-01 )
    (  -9.08997200e-01   9.88754700e-01   2.45078000e-01 )
    (  -9.78692400e-01   8.97624300e-01   2.31650100e-01 )
    (  -1.03693000e+00   7.97059100e-01   2.16908300e-01 )
    (  -1.03950900e+00   6.88271300e-01   1.95346500e-01 )
    (  -1.00394600e+00   5.72132200e-01   1.62405600e-01 )
    (  -9.21000000e-01   4.49906900e-01   1.20623100e-01 )
    (  -8.09553400e-01   3.23259000e-01   7.59258300e-02 )
    (  -8.86459300e-01   1.96108600e-01   3.58234200e-02 )
    (  -9.94449000e-01   9.84474000e-02   1.03487900e-02 )
    (  -9.97005800e-01   7.81457900e-02   3.21928400e-03 )
    (  -9.85771700e-01   6.51510700e-02  -8.58099200e-04 )
    (  -9.43824400e-01   5.43467100e-02  -7.56671300e-03 )
    (  -8.97103400e-01   4.49170900e-02  -1.36388100e-02 )
    (  -8.28869200e-01   2.43985000e-02  -1.85370900e-02 )
    (  -7.32822700e-01   2.28045800e-02  -2.86528200e-02 )
    (  -6.19358400e-01   1.70723300e-02  -4.59026400e-02 )
    (  -5.05532400e-01   1.33079200e-02  -5.21027500e-02 )
    (  -3.90186400e-01   1.05765800e-02  -5.90045800e-02 )
    (  -2.66280400e-01   8.69047000e-03  -6.51994200e-02 )
    (  -1.49584600e-01   7.33306500e-03  -7.05463700e-02 )
    (  -3.34120600e-02   6.88610800e-03  -7.42081400e-02 )
    (   8.79933300e-02   6.69219300e-03  -7.78699100e-02 )
    (   2.34483500e-01   6.54523500e-03  -8.14090600e-02 )
    (   3.60558200e-01   6.59827700e-03  -8.43664600e-02 )
    (   4.79636800e-01   6.65132000e-03  -8.76299600e-02 )
    (   5.91400700e-01   6.79827800e-03  -9.13586500e-02 )
    (   7.10386800e-01   7.04523500e-03  -9.36343200e-02 )
    (   8.36785000e-01   7.29827800e-03  -9.82073400e-02 )
    (   9.49505200e-01   7.74523500e-03  -1.01392500e-01 )
    (   1.05901300e+00   8.49827800e-03  -1.02963800e-01 )
    (   1.18849100e+00   1.01226200e-02  -1.03877700e-01 )
    (   1.26058700e+00   1.18921900e-02  -1.02239500e-01 )
    (   1.32458300e+00   1.51965600e-02  -1.01606400e-01 )
    (   1.34589700e+00   2.09931100e-02  -1.02564600e-01 )
    (   1.33874500e+00   3.49401800e-02  -1.03055900e-01 )
    (   1.34560300e+00   5.24540700e-02  -1.03268100e-01 )
    (   1.34586000e+00   7.41349000e-02  -1.05375900e-01 )
    (   1.33039200e+00   9.71775000e-02  -1.05608900e-01 )
    (   1.32556300e+00   1.19844400e-01  -1.05984600e-01 )
    (   1.31962000e+00   1.43309600e-01  -1.08476800e-01 )
    (   1.31859600e+00   1.66774900e-01  -1.06618600e-01 )
    (   1.31767100e+00   1.89066100e-01  -1.09155100e-01 )
    (   1.30216300e+00   2.10136500e-01  -1.10893300e-01 )
    (   1.29206900e+00   2.26469600e-01  -1.14745500e-01 )
    (   1.20397500e+00   3.37706400e-01  -1.35900300e-01 )
    (   1.16949600e+00   4.47397100e-01  -1.50682100e-01 )
    (   1.18081400e+00   5.55845100e-01  -1.66796000e-01 )
    (   1.22103200e+00   6.59620800e-01  -1.83970700e-01 )
    (   1.24554900e+00   7.63940700e-01  -2.01894100e-01 )
    (   1.24576100e+00   8.65204100e-01  -2.20188900e-01 )
    (   1.21258800e+00   9.59580500e-01  -2.38012300e-01 )
    (   1.17176700e+00   1.04587900e+00  -2.54303500e-01 )
    (   1.00328400e+00   1.11407200e+00  -2.68526200e-01 )
    (   8.48887400e-01   1.18118400e+00  -2.79461000e-01 )
    (   6.97878300e-01   1.23352100e+00  -2.88701800e-01 )
    (   5.43408800e-01   1.27081000e+00  -2.97642700e-01 )
    (   4.13243400e-01   1.29299400e+00  -3.07789700e-01 )
    (   2.91060800e-01   1.30000000e+00  -3.14800000e-01 )
    (   1.66000000e-01   1.29299400e+00  -3.25000000e-01 )
    (   2.31000000e-02   1.27284700e+00  -3.30500000e-01 )
    (  -1.11426000e-01   1.24010600e+00  -3.31700000e-01 )
    (  -2.32591300e-01   1.19507100e+00  -3.30200000e-01 )
    (  -3.44287000e-01   1.13789600e+00  -3.27500000e-01 )
    (  -4.66652100e-01   1.06902000e+00  -3.25000000e-01 )
    (  -5.97300000e-01   9.89197400e-01  -3.24000000e-01 )
    (  -6.65100000e-01   9.01280800e-01  -3.24200000e-01 )
    (  -7.16000000e-01   8.08688600e-01  -3.23100000e-01 )
    (  -7.52500000e-01   7.15126900e-01  -3.20000000e-01 )
    (  -7.80100000e-01   6.24607700e-01  -3.14500000e-01 )
    (  -8.05000000e-01   5.41702400e-01  -3.06000000e-01 )
    (  -8.28100000e-01   4.66239700e-01  -2.98000000e-01 )
    (  -8.28300000e-01   3.80199700e-01  -2.88900000e-01 )
    (  -7.79000000e-01   2.60972700e-01  -2.80000000e-01 )
    (  -6.55300000e-01   1.18258100e-01  -2.54300000e-01 )
    (  -4.40000000e-01   2.10748500e-02  -1.56300000e-01 )
    (  -2.20000000e-02   1.56505100e-02   0.00000000e+00 )
);



// ************************************************************************* // 

