/*---*- C++ -*-
 *
 * Greenwich OpenFOAM CFD Simulation Package
 *
 * Generated by GWpy v0.1.0.dev-8c9f512
 * Timestamp: 2015-11-25T15:41:15.676496+00:00
 *
 * 
 */

FoamFile             
{ 
    version              2.0 ;
    format               ascii ;
    class                dictionary ;
    object               "23.4948_" ;
}

// * * * * * * * * * * * * * * * * * * * * * * * * * * * * * * * * * * * * * // 

aoa                  
( -180. -175. -170. -165. -160. -155. -150. -145. -140. -135. -130.
  -125. -120. -115. -110. -105. -100.  -95.  -90.  -85.  -80.  -75.
   -70.  -65.  -60.  -55.  -50.  -45.  -40.  -35.  -30.  -25.  -20.
   -15.  -14.  -13.  -12.  -11.  -10.   -9.   -8.   -7.   -6.   -5.
    -4.   -3.   -2.   -1.    0.    1.    2.    3.    4.    5.    6.
     7.    8.    9.   10.   11.   12.   13.   14.   15.   16.   17.
    18.   19.   20.   25.   30.   35.   40.   45.   50.   55.   60.
    65.   70.   75.   80.   85.   90.   95.  100.  105.  110.  115.
   120.  125.  130.  135.  140.  145.  150.  155.  160.  165.  170.
   175.  180. );

polars               
(
    ( -0.022       0.01691434  0.         )
    (  0.539       0.02221538  0.112809   )
    (  0.7822      0.1154842   0.1788405  )
    (  0.789       0.2552855   0.232106   )
    (  0.7879      0.37502     0.2613534  )
    (  0.8051      0.4621235   0.2781956  )
    (  0.816       0.5387508   0.286525   )
    (  0.8018      0.6227177   0.2940306  )
    (  0.7661      0.7138996   0.3032491  )
    (  0.718       0.8080083   0.307946   )
    (  0.6649      0.9008934   0.3137428  )
    (  0.606       0.9889418   0.3170289  )
    (  0.5277734   1.068978    0.3204397  )
    (  0.4103659   1.138177    0.3223763  )
    (  0.3022578   1.195589    0.3216516  )
    (  0.1921185   1.240863    0.3216139  )
    (  0.0843659   1.273551    0.3203021  )
    ( -0.0222      1.293375    0.3158171  )
    ( -0.1296341   1.3         0.3101202  )
    ( -0.2313867   1.293375    0.3040104  )
    ( -0.3367526   1.273564    0.2971125  )
    ( -0.4821642   1.240927    0.287178   )
    ( -0.6157255   1.195628    0.2767563  )
    ( -0.7356174   1.138178    0.2643992  )
    ( -0.8397567   1.068978    0.2540302  )
    ( -0.9201559   0.9884773   0.2403772  )
    ( -0.9825302   0.8975011   0.2258241  )
    ( -1.031459    0.7970129   0.2102809  )
    ( -1.033637    0.6881634   0.1882722  )
    ( -0.9996611   0.571716    0.155285   )
    ( -0.921       0.4488588   0.1144273  )
    ( -0.8148553   0.3214403   0.07199565 )
    ( -0.8613369   0.1947985   0.03494491 )
    ( -0.9440501   0.1055526   0.01187463 )
    ( -0.9513848   0.08728541  0.00565446 )
    ( -0.9489357   0.0752771   0.00171579 )
    ( -0.9168525   0.06424154 -0.00368276 )
    ( -0.8813826   0.05394883 -0.00862974 )
    ( -0.8219335   0.02820539 -0.01379004 )
    ( -0.7347339   0.02658065 -0.02509253 )
    ( -0.6221018   0.01949209 -0.04639584 )
    ( -0.5086612   0.01478752 -0.05436839 )
    ( -0.3958274   0.01145509 -0.06278065 )
    ( -0.2719522   0.00924532 -0.06976152 )
    ( -0.1537152   0.00767214 -0.07512389 )
    ( -0.03157797  0.00720977 -0.07923263 )
    (  0.09258626  0.00698503 -0.08334135 )
    (  0.2343139   0.00682266 -0.08718876 )
    (  0.3597568   0.00686029 -0.09036194 )
    (  0.4847692   0.00689792 -0.09381038 )
    (  0.6020353   0.00706029 -0.09764697 )
    (  0.7213451   0.00732266 -0.1000459  )
    (  0.8462328   0.00756029 -0.104249   )
    (  0.9621434   0.00802266 -0.1070027  )
    (  1.073131    0.00876029 -0.1084661  )
    (  1.201453    0.01026133 -0.1090563  )
    (  1.276863    0.01218503 -0.1078651  )
    (  1.334293    0.01572058 -0.1068929  )
    (  1.347177    0.02204116 -0.1070497  )
    (  1.329143    0.03777608 -0.1070786  )
    (  1.332672    0.05496631 -0.1072291  )
    (  1.331372    0.0759844  -0.1090441  )
    (  1.319033    0.09881122 -0.1096162  )
    (  1.316886    0.1211391  -0.1101152  )
    (  1.312931    0.1445272  -0.1129002  )
    (  1.310258    0.1679154  -0.1118434  )
    (  1.308701    0.1897443  -0.114195   )
    (  1.291713    0.2099516  -0.1154863  )
    (  1.281588    0.2266237  -0.1185678  )
    (  1.216767    0.3429929  -0.1412176  )
    (  1.184461    0.4567833  -0.1560919  )
    (  1.195687    0.5677744  -0.1718821  )
    (  1.237585    0.6716734  -0.1884249  )
    (  1.260499    0.7756388  -0.2054698  )
    (  1.260649    0.8753147  -0.2227782  )
    (  1.226074    0.9670247  -0.2397231  )
    (  1.198276    1.050796   -0.255552   )
    (  1.015522    1.11472    -0.2699133  )
    (  0.8570561   1.18177    -0.2809252  )
    (  0.6984948   1.233922   -0.2902123  )
    (  0.5438711   1.271011   -0.2991994  )
    (  0.4120104   1.293025   -0.3093617  )
    (  0.2907526   1.3        -0.3148     )
    (  0.166       1.293025   -0.325      )
    (  0.0231      1.272862   -0.3305     )
    ( -0.1092682   1.240075   -0.3317     )
    ( -0.2321289   1.194963   -0.3302     )
    ( -0.3453659   1.137664   -0.3275     )
    ( -0.4658815   1.068666   -0.325      )
    ( -0.5973      0.9887041  -0.324      )
    ( -0.6651      0.9006181  -0.3242     )
    ( -0.716       0.8077331  -0.3231     )
    ( -0.7525      0.7137243  -0.32       )
    ( -0.7801      0.6225424  -0.3145     )
    ( -0.805       0.5386508  -0.306      )
    ( -0.8281      0.4619859  -0.298      )
    ( -0.8283      0.3748823  -0.2889     )
    ( -0.779       0.2552855  -0.28       )
    ( -0.6553      0.1156842  -0.2543     )
    ( -0.44        0.02221538 -0.1563     )
    ( -0.022       0.01691434  0.         )
);



// ************************************************************************* // 

