/*---*- C++ -*-
 *
 * Greenwich OpenFOAM CFD Simulation Package
 *
 * Generated by GWpy v0.1.0.dev-8c9f512
 * Timestamp: 2015-11-25T15:41:15.686366+00:00
 *
 * 
 */

FoamFile             
{ 
    version              2.0 ;
    format               ascii ;
    class                dictionary ;
    object               "24.0836_" ;
}

// * * * * * * * * * * * * * * * * * * * * * * * * * * * * * * * * * * * * * // 

aoa                  
( -180. -175. -170. -165. -160. -155. -150. -145. -140. -135. -130.
  -125. -120. -115. -110. -105. -100.  -95.  -90.  -85.  -80.  -75.
   -70.  -65.  -60.  -55.  -50.  -45.  -40.  -35.  -30.  -25.  -20.
   -15.  -14.  -13.  -12.  -11.  -10.   -9.   -8.   -7.   -6.   -5.
    -4.   -3.   -2.   -1.    0.    1.    2.    3.    4.    5.    6.
     7.    8.    9.   10.   11.   12.   13.   14.   15.   16.   17.
    18.   19.   20.   25.   30.   35.   40.   45.   50.   55.   60.
    65.   70.   75.   80.   85.   90.   95.  100.  105.  110.  115.
   120.  125.  130.  135.  140.  145.  150.  155.  160.  165.  170.
   175.  180. );

polars               
(
    (  -2.20000000e-02   1.81213800e-02   0.00000000e+00 )
    (   5.39000000e-01   2.33046600e-02   1.10380200e-01 )
    (   7.82200000e-01   1.13026000e-01   1.74247900e-01 )
    (   7.89000000e-01   2.49853800e-01   2.27174900e-01 )
    (   7.87900000e-01   3.69926900e-01   2.56716700e-01 )
    (   8.05100000e-01   4.58046100e-01   2.74442000e-01 )
    (   8.16000000e-01   5.35836200e-01   2.83698700e-01 )
    (   8.01800000e-01   6.20715800e-01   2.91984500e-01 )
    (   7.66100000e-01   7.12530600e-01   3.01939000e-01 )
    (   7.18000000e-01   8.07066200e-01   3.06989200e-01 )
    (   6.64900000e-01   9.00230900e-01   3.13139300e-01 )
    (   6.06000000e-01   9.88456000e-01   3.16587300e-01 )
    (   5.25123800e-01   1.06859600e+00   3.20189500e-01 )
    (   4.11396300e-01   1.13791200e+00   3.22229100e-01 )
    (   3.01374600e-01   1.19539800e+00   3.21474900e-01 )
    (   1.92854500e-01   1.24076000e+00   3.21452000e-01 )
    (   8.53963000e-02   1.27349200e+00   3.20066600e-01 )
    (  -2.22000000e-02   1.29334600e+00   3.15301900e-01 )
    (  -1.28603700e-01   1.30000000e+00   3.09251700e-01 )
    (  -2.30061900e-01   1.29334600e+00   3.02832800e-01 )
    (  -3.36458200e-01   1.27346000e+00   2.95699400e-01 )
    (  -4.91879400e-01   1.24072100e+00   2.85426300e-01 )
    (  -6.32653500e-01   1.19530400e+00   2.74621900e-01 )
    (  -7.50631700e-01   1.13779600e+00   2.61661300e-01 )
    (  -8.53151900e-01   1.06859600e+00   2.50615100e-01 )
    (  -9.30813100e-01   9.88212400e-01   2.35887600e-01 )
    (  -9.86195400e-01   8.97383300e-01   2.20260000e-01 )
    (  -1.02623300e+00   7.96968700e-01   2.03951300e-01 )
    (  -1.02802900e+00   6.88060400e-01   1.81515700e-01 )
    (  -9.95569000e-01   5.71318600e-01   1.48484400e-01 )
    (  -9.21000000e-01   4.47857900e-01   1.08509800e-01 )
    (  -8.19918900e-01   3.19703400e-01   6.82420600e-02 )
    (  -8.37343300e-01   1.93547400e-01   3.41058700e-02 )
    (  -8.95915700e-01   1.12338500e-01   1.33319100e-02 )
    (  -9.07813700e-01   9.60143500e-02   7.98021600e-03 )
    (  -9.13755000e-01   8.49481200e-02   4.17402600e-03 )
    (  -8.91092500e-01   7.36917600e-02   2.66730800e-05 )
    (  -8.66368200e-01   6.25747300e-02  -3.84575700e-03 )
    (  -8.15309500e-01   3.18412300e-02  -9.25628700e-03 )
    (  -7.36559200e-01   3.01870400e-02  -2.16922200e-02 )
    (  -6.24722000e-01   2.18031300e-02  -4.68668800e-02 )
    (  -5.11649300e-01   1.62006400e-02  -5.65322300e-02 )
    (  -4.01214900e-01   1.22941300e-02  -6.63870400e-02 )
    (  -2.77369100e-01   9.77523900e-03  -7.41186300e-02 )
    (  -1.57660100e-01   7.99598000e-03  -7.94957300e-02 )
    (  -2.98262900e-02   7.51889000e-03  -8.40313300e-02 )
    (   9.69728100e-02   7.26471000e-03  -8.85669400e-02 )
    (   2.34152000e-01   7.08762000e-03  -9.27087400e-02 )
    (   3.58991300e-01   7.11053000e-03  -9.60880000e-02 )
    (   4.89671000e-01   7.13344000e-03  -9.97130900e-02 )
    (   6.12192100e-01   7.31053000e-03  -1.03652700e-01 )
    (   7.31810900e-01   7.58762000e-03  -1.06169400e-01 )
    (   8.55256200e-01   7.81053000e-03  -1.10019300e-01 )
    (   9.74213800e-01   8.28762000e-03  -1.12360800e-01 )
    (   1.08661400e+00   9.01052900e-03  -1.13721100e-01 )
    (   1.21383300e+00   1.03938100e-02  -1.14002200e-01 )
    (   1.29240700e+00   1.24647100e-02  -1.13237800e-01 )
    (   1.34356700e+00   1.62210600e-02  -1.11941900e-01 )
    (   1.34839800e+00   2.30421200e-02  -1.11333200e-01 )
    (   1.31997300e+00   4.04845600e-02  -1.10920500e-01 )
    (   1.32032200e+00   5.73656600e-02  -1.11012100e-01 )
    (   1.31753500e+00   7.77507900e-02  -1.12547400e-01 )
    (   1.30818500e+00   1.00371500e-01  -1.13443400e-01 )
    (   1.30859800e+00   1.22375600e-01  -1.14060100e-01 )
    (   1.30654300e+00   1.45690100e-01  -1.17124800e-01 )
    (   1.30229400e+00   1.69004600e-01  -1.16833500e-01 )
    (   1.30013400e+00   1.90392000e-01  -1.19008400e-01 )
    (   1.28173300e+00   2.09774900e-01  -1.19872800e-01 )
    (   1.27157900e+00   2.26770900e-01  -1.22218300e-01 )
    (   1.22898500e+00   3.48041900e-01  -1.46296000e-01 )
    (   1.19875400e+00   4.65747800e-01  -1.61258600e-01 )
    (   1.20989200e+00   5.79167600e-01  -1.76739700e-01 )
    (   1.25339500e+00   6.83184400e-01  -1.92679000e-01 )
    (   1.27477700e+00   7.86811300e-01  -2.08884900e-01 )
    (   1.27486900e+00   8.84971000e-01  -2.25251100e-01 )
    (   1.23895400e+00   9.74134400e-01  -2.41357000e-01 )
    (   1.22359500e+00   1.05549200e+00  -2.56744300e-01 )
    (   1.02721000e+00   1.11533800e+00  -2.71238100e-01 )
    (   8.64857700e-01   1.18232900e+00  -2.82323500e-01 )
    (   6.99083600e-01   1.23430400e+00  -2.91654800e-01 )
    (   5.44312700e-01   1.27120200e+00  -3.00686100e-01 )
    (   4.10832800e-01   1.29305400e+00  -3.10863200e-01 )
    (   2.90458200e-01   1.30000000e+00  -3.14800000e-01 )
    (   1.66000000e-01   1.29305400e+00  -3.25000000e-01 )
    (   2.31000000e-02   1.27287700e+00  -3.30500000e-01 )
    (  -1.07207400e-01   1.24004600e+00  -3.31700000e-01 )
    (  -2.31687300e-01   1.19486000e+00  -3.30200000e-01 )
    (  -3.46396300e-01   1.13744400e+00  -3.27500000e-01 )
    (  -4.65145500e-01   1.06832700e+00  -3.25000000e-01 )
    (  -5.97300000e-01   9.88233100e-01  -3.24000000e-01 )
    (  -6.65100000e-01   8.99985100e-01  -3.24200000e-01 )
    (  -7.16000000e-01   8.06820500e-01  -3.23100000e-01 )
    (  -7.52500000e-01   7.12384800e-01  -3.20000000e-01 )
    (  -7.80100000e-01   6.20569900e-01  -3.14500000e-01 )
    (  -8.05000000e-01   5.35736200e-01  -3.06000000e-01 )
    (  -8.28100000e-01   4.57923100e-01  -2.98000000e-01 )
    (  -8.28300000e-01   3.69804000e-01  -2.88900000e-01 )
    (  -7.79000000e-01   2.49853800e-01  -2.80000000e-01 )
    (  -6.55300000e-01   1.13226000e-01  -2.54300000e-01 )
    (  -4.40000000e-01   2.33046600e-02  -1.56300000e-01 )
    (  -2.20000000e-02   1.81213800e-02   0.00000000e+00 )
);



// ************************************************************************* // 

