/*---*- C++ -*-
 *
 * Greenwich OpenFOAM CFD Simulation Package
 *
 * Generated by GWpy v0.1.0.dev-8c9f512
 * Timestamp: 2015-11-25T15:41:15.697152+00:00
 *
 * 
 */

FoamFile             
{ 
    version              2.0 ;
    format               ascii ;
    class                dictionary ;
    object               "24.6105_" ;
}

// * * * * * * * * * * * * * * * * * * * * * * * * * * * * * * * * * * * * * // 

aoa                  
( -180. -175. -170. -165. -160. -155. -150. -145. -140. -135. -130.
  -125. -120. -115. -110. -105. -100.  -95.  -90.  -85.  -80.  -75.
   -70.  -65.  -60.  -55.  -50.  -45.  -40.  -35.  -30.  -25.  -20.
   -15.  -14.  -13.  -12.  -11.  -10.   -9.   -8.   -7.   -6.   -5.
    -4.   -3.   -2.   -1.    0.    1.    2.    3.    4.    5.    6.
     7.    8.    9.   10.   11.   12.   13.   14.   15.   16.   17.
    18.   19.   20.   25.   30.   35.   40.   45.   50.   55.   60.
    65.   70.   75.   80.   85.   90.   95.  100.  105.  110.  115.
   120.  125.  130.  135.  140.  145.  150.  155.  160.  165.  170.
   175.  180. );

polars               
(
    (  -2.20000000e-02   1.92015200e-02   0.00000000e+00 )
    (   5.39000000e-01   2.42794300e-02   1.08206700e-01 )
    (   7.82200000e-01   1.10826200e-01   1.70138100e-01 )
    (   7.89000000e-01   2.44993100e-01   2.22762100e-01 )
    (   7.87900000e-01   3.65369200e-01   2.52567300e-01 )
    (   8.05100000e-01   4.54397300e-01   2.71083100e-01 )
    (   8.16000000e-01   5.33228000e-01   2.81169600e-01 )
    (   8.01800000e-01   6.18924300e-01   2.90153500e-01 )
    (   7.66100000e-01   7.11305600e-01   3.00766600e-01 )
    (   7.18000000e-01   8.06223200e-01   3.06132900e-01 )
    (   6.64900000e-01   8.99638200e-01   3.12599200e-01 )
    (   6.06000000e-01   9.88021300e-01   3.16192100e-01 )
    (   5.22752800e-01   1.06825300e+00   3.19965500e-01 )
    (   4.12318300e-01   1.13767500e+00   3.22097400e-01 )
    (   3.00584300e-01   1.19522700e+00   3.21316900e-01 )
    (   1.93513100e-01   1.24066800e+00   3.21307100e-01 )
    (   8.63183700e-02   1.27343900e+00   3.19855800e-01 )
    (  -2.22000000e-02   1.29331900e+00   3.14840800e-01 )
    (  -1.27681600e-01   1.30000000e+00   3.08474500e-01 )
    (  -2.28876400e-01   1.29331900e+00   3.01779000e-01 )
    (  -3.36194800e-01   1.27336800e+00   2.94434800e-01 )
    (  -5.00573300e-01   1.24053600e+00   2.83858800e-01 )
    (  -6.47801900e-01   1.19501400e+00   2.72711900e-01 )
    (  -7.64067800e-01   1.13745300e+00   2.59211200e-01 )
    (  -8.65138900e-01   1.06825300e+00   2.47559100e-01 )
    (  -9.40350100e-01   9.87975300e-01   2.31869900e-01 )
    (  -9.89475400e-01   8.97277900e-01   2.15280800e-01 )
    (  -1.02155700e+00   7.96929200e-01   1.98287100e-01 )
    (  -1.02301000e+00   6.87968200e-01   1.75469500e-01 )
    (  -9.91907000e-01   5.70962900e-01   1.42398700e-01 )
    (  -9.21000000e-01   4.46962100e-01   1.03214500e-01 )
    (  -8.24450300e-01   3.18149000e-01   6.48830600e-02 )
    (  -8.15872100e-01   1.92427700e-01   3.33550400e-02 )
    (  -8.52841600e-01   1.18411000e-01   1.46359900e-02 )
    (  -8.68822900e-01   1.03825700e-01   1.00614800e-02 )
    (  -8.82272600e-01   9.36024700e-02   6.37383900e-03 )
    (  -8.68040600e-01   8.21485300e-02   3.34615100e-03 )
    (  -8.52932200e-01   7.02938300e-02   4.35315100e-04 )
    (  -8.09381900e-01   3.50948400e-02  -5.19914700e-03 )
    (  -7.38192600e-01   3.34143100e-02  -1.86493600e-02 )
    (  -6.27066700e-01   2.38712100e-02  -4.72884000e-02 )
    (  -5.14323300e-01   1.74652000e-02  -5.84685900e-02 )
    (  -4.06036100e-01   1.30449600e-02  -6.96143100e-02 )
    (  -2.82216600e-01   1.02494500e-02  -7.80177000e-02 )
    (  -1.61190400e-01   8.28577600e-03  -8.34079700e-02 )
    (  -2.82587600e-02   7.79551300e-03  -8.83255700e-02 )
    (   1.00898200e-01   7.51498800e-03  -9.32431900e-02 )
    (   2.34007100e-01   7.32472500e-03  -9.76484400e-02 )
    (   3.58306300e-01   7.33446200e-03  -1.01212100e-01 )
    (   4.94057400e-01   7.34420000e-03  -1.04995300e-01 )
    (   6.21281100e-01   7.53446200e-03  -1.09027100e-01 )
    (   7.41176600e-01   7.82472500e-03  -1.11649200e-01 )
    (   8.63330900e-01   8.03446300e-03  -1.15182900e-01 )
    (   9.85015200e-01   8.52472500e-03  -1.17155600e-01 )
    (   1.09868000e+00   9.23446300e-03  -1.18423700e-01 )
    (   1.22491100e+00   1.05123600e-02  -1.18428200e-01 )
    (   1.30631700e+00   1.27149900e-02  -1.18045800e-01 )
    (   1.35186500e+00   1.66689300e-02  -1.16460000e-01 )
    (   1.34949200e+00   2.39378500e-02  -1.15166400e-01 )
    (   1.31176600e+00   4.29083000e-02  -1.14358500e-01 )
    (   1.30927000e+00   5.95127900e-02  -1.14397500e-01 )
    (   1.30515300e+00   7.93315000e-02  -1.15682500e-01 )
    (   1.29847700e+00   1.01767800e-01  -1.16868300e-01 )
    (   1.30118200e+00   1.23482100e-01  -1.17590400e-01 )
    (   1.30082600e+00   1.46730700e-01  -1.20905300e-01 )
    (   1.29516800e+00   1.69979400e-01  -1.21299000e-01 )
    (   1.29246700e+00   1.90971600e-01  -1.23315800e-01 )
    (   1.27280200e+00   2.09616900e-01  -1.23798200e-01 )
    (   1.26262200e+00   2.26902600e-01  -1.25485100e-01 )
    (   1.23991800e+00   3.52560000e-01  -1.50840600e-01 )
    (   1.21154500e+00   4.73769900e-01  -1.65882100e-01 )
    (   1.22260300e+00   5.89363200e-01  -1.81086600e-01 )
    (   1.26754200e+00   6.93485300e-01  -1.96485900e-01 )
    (   1.28755500e+00   7.96809300e-01  -2.11940900e-01 )
    (   1.28759400e+00   8.93612200e-01  -2.27464100e-01 )
    (   1.25048000e+00   9.80496800e-01  -2.42819100e-01 )
    (   1.24625200e+00   1.05969400e+00  -2.57811200e-01 )
    (   1.03766800e+00   1.11589100e+00  -2.72423600e-01 )
    (   8.71839100e-01   1.18283000e+00  -2.83574900e-01 )
    (   6.99610500e-01   1.23464700e+00  -2.92945700e-01 )
    (   5.44707900e-01   1.27137300e+00  -3.02016500e-01 )
    (   4.09779000e-01   1.29308100e+00  -3.12206800e-01 )
    (   2.90194700e-01   1.30000000e+00  -3.14800000e-01 )
    (   1.66000000e-01   1.29308100e+00  -3.25000000e-01 )
    (   2.31000000e-02   1.27289000e+00  -3.30500000e-01 )
    (  -1.05363200e-01   1.24001900e+00  -3.31700000e-01 )
    (  -2.31292100e-01   1.19476800e+00  -3.30200000e-01 )
    (  -3.47318400e-01   1.13724600e+00  -3.27500000e-01 )
    (  -4.64486900e-01   1.06802400e+00  -3.25000000e-01 )
    (  -5.97300000e-01   9.87811600e-01  -3.24000000e-01 )
    (  -6.65100000e-01   8.99418700e-01  -3.24200000e-01 )
    (  -7.16000000e-01   8.06003700e-01  -3.23100000e-01 )
    (  -7.52500000e-01   7.11186100e-01  -3.20000000e-01 )
    (  -7.80100000e-01   6.18804800e-01  -3.14500000e-01 )
    (  -8.05000000e-01   5.33128000e-01  -3.06000000e-01 )
    (  -8.28100000e-01   4.54287500e-01  -2.98000000e-01 )
    (  -8.28300000e-01   3.65259400e-01  -2.88900000e-01 )
    (  -7.79000000e-01   2.44993100e-01  -2.80000000e-01 )
    (  -6.55300000e-01   1.11026200e-01  -2.54300000e-01 )
    (  -4.40000000e-01   2.42794300e-02  -1.56300000e-01 )
    (  -2.20000000e-02   1.92015200e-02   0.00000000e+00 )
);



// ************************************************************************* // 

