/*---*- C++ -*-
 *
 * Greenwich OpenFOAM CFD Simulation Package
 *
 * Generated by GWpy v0.1.0.dev-8c9f512
 * Timestamp: 2015-11-25T15:41:15.719879+00:00
 *
 * 
 */

FoamFile             
{ 
    version              2.0 ;
    format               ascii ;
    class                dictionary ;
    object               "25.6247_" ;
}

// * * * * * * * * * * * * * * * * * * * * * * * * * * * * * * * * * * * * * // 

aoa                  
( -180. -175. -170. -165. -160. -155. -150. -145. -140. -135. -130.
  -125. -120. -115. -110. -105. -100.  -95.  -90.  -85.  -80.  -75.
   -70.  -65.  -60.  -55.  -50.  -45.  -40.  -35.  -30.  -25.  -20.
   -15.  -14.  -13.  -12.  -11.  -10.   -9.   -8.   -7.   -6.   -5.
    -4.   -3.   -2.   -1.    0.    1.    2.    3.    4.    5.    6.
     7.    8.    9.   10.   11.   12.   13.   14.   15.   16.   17.
    18.   19.   20.   25.   30.   35.   40.   45.   50.   55.   60.
    65.   70.   75.   80.   85.   90.   95.  100.  105.  110.  115.
   120.  125.  130.  135.  140.  145.  150.  155.  160.  165.  170.
   175.  180. );

polars               
(
    ( -0.022       0.02        0.         )
    (  0.539       0.025       0.1066     )
    (  0.7822      0.1092      0.1671     )
    (  0.789       0.2414      0.2195     )
    (  0.7879      0.362       0.2495     )
    (  0.8051      0.4517      0.2686     )
    (  0.816       0.5313      0.2793     )
    (  0.8018      0.6176      0.2888     )
    (  0.7661      0.7104      0.2999     )
    (  0.718       0.8056      0.3055     )
    (  0.6649      0.8992      0.3122     )
    (  0.606       0.9877      0.3159     )
    (  0.523249    1.068       0.3198     )
    (  0.4122503   1.1375      0.322      )
    (  0.2997501   1.1951      0.3212     )
    (  0.1938751   1.240587    0.3212     )
    (  0.08662517  1.2734      0.3197     )
    ( -0.0222      1.2933      0.3145     )
    ( -0.1273748   1.3         0.3079     )
    ( -0.2289995   1.2933      0.301      )
    ( -0.3357501   1.2733      0.2935     )
    ( -0.5032519   1.240387    0.2827     )
    ( -0.6556266   1.1948      0.2713     )
    ( -0.7710014   1.1372      0.2574     )
    ( -0.8716261   1.068       0.2453     )
    ( -0.9474      0.9878      0.2289     )
    ( -0.9919      0.8972      0.2116     )
    ( -1.0181      0.7969      0.1941     )
    ( -1.0193      0.6879      0.171      )
    ( -0.9892      0.5707      0.1379     )
    ( -0.921       0.4463      0.0993     )
    ( -0.8278      0.317       0.0624     )
    ( -0.8         0.1916      0.0328     )
    ( -0.8183762   0.1249615   0.0151877  )
    ( -0.8362518   0.1124611   0.01092532 )
    ( -0.8516285   0.1032484   0.00750024 )
    ( -0.8432537   0.09244806  0.00530024 )
    ( -0.8345041   0.08051033  0.00273791 )
    ( -0.7663935   0.04768262 -0.00299962 )
    ( -0.7028675   0.04437089 -0.01656242 )
    ( -0.5999638   0.03330871 -0.04511369 )
    ( -0.4952601   0.02534667 -0.05751364 )
    ( -0.3958066   0.01932226 -0.06967611 )
    ( -0.2792032   0.01526027 -0.07925079 )
    ( -0.1630504   0.01141111 -0.08517554 )
    ( -0.03208511  0.0092494  -0.09075036 )
    (  0.09702825  0.00807482 -0.09630019 )
    (  0.2280028   0.00781235 -0.1011751  )
    (  0.3529648   0.00777487 -0.1050625  )
    (  0.4930145   0.00777487 -0.1091999  )
    (  0.6244392   0.00802484 -0.1133248  )
    (  0.745064    0.00837482 -0.1160623  )
    (  0.8666638   0.00863729 -0.1193623  )
    (  0.9907011   0.00919976 -0.1212123  )
    (  1.105763    0.00992475 -0.1223623  )
    (  1.231151    0.01111225 -0.1222372  )
    (  1.318024    0.01326233 -0.1221872  )
    (  1.362061    0.01703748 -0.1206246  )
    (  1.35446     0.02431264 -0.1189495  )
    (  1.316995    0.0430258  -0.1177496  )
    (  1.314631    0.05812642 -0.1174872  )
    (  1.308032    0.07625204 -0.1183124  )
    (  1.30082     0.09785237 -0.1195999  )
    (  1.300473    0.1182904  -0.1203999  )
    (  1.300361    0.1401285  -0.123625   )
    (  1.292724    0.1620666  -0.12465    )
    (  1.287512    0.1815547  -0.1263876  )
    (  1.267612    0.1984553  -0.126775   )
    (  1.257062    0.2147809  -0.127975   )
    (  1.239879    0.3559     -0.1542     )
    (  1.214378    0.4797     -0.1693     )
    (  1.225878    0.5969     -0.1843     )
    (  1.282248    0.7011     -0.1993     )
    (  1.30737     0.8042     -0.2142     )
    (  1.311243    0.9        -0.2291     )
    (  1.269495    0.9852     -0.2439     )
    (  1.263       1.0628     -0.2586     )
    (  1.0454      1.1163     -0.2733     )
    (  0.8798736   1.1832     -0.2845     )
    (  0.7039981   1.2349     -0.2939     )
    (  0.5463744   1.2715     -0.303      )
    (  0.4099995   1.2931     -0.3132     )
    (  0.2912494   1.3        -0.3148     )
    (  0.1652503   1.2931     -0.325      )
    (  0.0231      1.2729     -0.3305     )
    ( -0.1037501   1.24       -0.3317     )
    ( -0.2316247   1.1947     -0.3302     )
    ( -0.3484997   1.1371     -0.3275     )
    ( -0.4641249   1.0678     -0.325      )
    ( -0.5966378   0.9875     -0.324      )
    ( -0.6651      0.899      -0.3242     )
    ( -0.716       0.8054     -0.3231     )
    ( -0.7525      0.7103     -0.32       )
    ( -0.7801      0.6175     -0.3145     )
    ( -0.805       0.5312     -0.306      )
    ( -0.8281      0.4516     -0.298      )
    ( -0.8283      0.3619     -0.2889     )
    ( -0.779       0.2414     -0.28       )
    ( -0.6553      0.1094     -0.2543     )
    ( -0.44        0.025      -0.1563     )
    ( -0.022       0.02        0.         )
);



// ************************************************************************* // 

