/*---*- C++ -*-
 *
 * Greenwich OpenFOAM CFD Simulation Package
 *
 * Generated by GWpy v0.1.0.dev-8c9f512
 * Timestamp: 2015-11-25T15:41:15.731373+00:00
 *
 * 
 */

FoamFile             
{ 
    version              2.0 ;
    format               ascii ;
    class                dictionary ;
    object               "26.1168_" ;
}

// * * * * * * * * * * * * * * * * * * * * * * * * * * * * * * * * * * * * * // 

aoa                  
( -180. -175. -170. -165. -160. -155. -150. -145. -140. -135. -130.
  -125. -120. -115. -110. -105. -100.  -95.  -90.  -85.  -80.  -75.
   -70.  -65.  -60.  -55.  -50.  -45.  -40.  -35.  -30.  -25.  -20.
   -15.  -14.  -13.  -12.  -11.  -10.   -9.   -8.   -7.   -6.   -5.
    -4.   -3.   -2.   -1.    0.    1.    2.    3.    4.    5.    6.
     7.    8.    9.   10.   11.   12.   13.   14.   15.   16.   17.
    18.   19.   20.   25.   30.   35.   40.   45.   50.   55.   60.
    65.   70.   75.   80.   85.   90.   95.  100.  105.  110.  115.
   120.  125.  130.  135.  140.  145.  150.  155.  160.  165.  170.
   175.  180. );

polars               
(
    ( -0.022       0.02        0.         )
    (  0.539       0.025       0.1066     )
    (  0.7822      0.1092      0.1671     )
    (  0.789       0.2414      0.2195     )
    (  0.7879      0.362       0.2495     )
    (  0.8051      0.4517      0.2686     )
    (  0.816       0.5313      0.2793     )
    (  0.8018      0.6176      0.2888     )
    (  0.7661      0.7104      0.2999     )
    (  0.718       0.8056      0.3055     )
    (  0.6649      0.8992      0.3122     )
    (  0.606       0.9877      0.3159     )
    (  0.5250205   1.068       0.3198     )
    (  0.4116598   1.1375      0.322      )
    (  0.2995533   1.1951      0.3212     )
    (  0.1937767   1.240578    0.3212     )
    (  0.08632991  1.2734      0.3197     )
    ( -0.0222      1.2933      0.3145     )
    ( -0.1276701   1.3         0.3079     )
    ( -0.2297869   1.2933      0.301      )
    ( -0.3355533   1.2733      0.2935     )
    ( -0.5002992   1.240378    0.2827     )
    ( -0.6529692   1.1948      0.2713     )
    ( -0.7686393   1.1372      0.2574     )
    ( -0.8697562   1.068       0.2453     )
    ( -0.9474      0.9878      0.2289     )
    ( -0.9919      0.8972      0.2116     )
    ( -1.0181      0.7969      0.1941     )
    ( -1.0193      0.6879      0.171      )
    ( -0.9892      0.5707      0.1379     )
    ( -0.921       0.4463      0.0993     )
    ( -0.8278      0.317       0.0624     )
    ( -0.8         0.1916      0.0328     )
    ( -0.8163095   0.1265854   0.01486291 )
    ( -0.8332992   0.1147149   0.01039386 )
    ( -0.8458218   0.1058074   0.00710656 )
    ( -0.8371517   0.09563687  0.00490656 )
    ( -0.8278115   0.0840633   0.00205881 )
    ( -0.7359818   0.05570385 -0.0036295  )
    ( -0.6740896   0.0511225  -0.01669037 )
    ( -0.5772485   0.03953869 -0.04315513 )
    ( -0.4786862   0.03081882 -0.05563382 )
    ( -0.384941    0.02382989 -0.0678455  )
    ( -0.2740066   0.01893133 -0.07795165 )
    ( -0.1624598   0.01370429 -0.08428976 )
    ( -0.03601207  0.0102336  -0.09015984 )
    (  0.09169389  0.00837008 -0.09598525 )
    (  0.2233574   0.0080584  -0.1010766  )
    (  0.349156    0.00799139 -0.1051117  )
    (  0.4896387   0.00799139 -0.1094361  )
    (  0.6216342   0.00828074 -0.1135807  )
    (  0.7426723   0.00867008 -0.1163477  )
    (  0.8645871   0.00898176 -0.1196477  )
    (  0.9888902   0.00959344 -0.1216158  )
    (  1.104317    0.01033811 -0.1227264  )
    (  1.229616    0.01151578 -0.1226604  )
    (  1.319146    0.01354774 -0.1226498  )
    (  1.365259    0.01706701 -0.1212742  )
    (  1.357738    0.02408627 -0.1196975  )
    (  1.325892    0.04170698 -0.1184188  )
    (  1.32529     0.05578403 -0.1179498  )
    (  1.31751     0.07290576 -0.1185584  )
    (  1.30832     0.09395494 -0.1197574  )
    (  1.304232    0.1135564  -0.1205574  )
    (  1.303323    0.1343217  -0.123566   )
    (  1.294948    0.1552658  -0.1246893  )
    (  1.288073    0.1737992  -0.126299   )
    (  1.268724    0.189755   -0.126834   )
    (  1.257899    0.2051554  -0.128034   )
    (  1.233482    0.3559     -0.1542     )
    (  1.209162    0.4797     -0.1693     )
    (  1.221055    0.5969     -0.1843     )
    (  1.285594    0.7011     -0.1993     )
    (  1.315539    0.8042     -0.2142     )
    (  1.322463    0.9        -0.2291     )
    (  1.277762    0.9852     -0.2439     )
    (  1.263       1.0628     -0.2586     )
    (  1.0454      1.1163     -0.2733     )
    (  0.8821372   1.1832     -0.2845     )
    (  0.7071475   1.2349     -0.2939     )
    (  0.547457    1.2715     -0.303      )
    (  0.4107869   1.2931     -0.3132     )
    (  0.2922336   1.3        -0.3148     )
    (  0.1646598   1.2931     -0.325      )
    (  0.0231      1.2729     -0.3305     )
    ( -0.1035533   1.24       -0.3317     )
    ( -0.2321168   1.1947     -0.3302     )
    ( -0.3488934   1.1371     -0.3275     )
    ( -0.4642234   1.0678     -0.325      )
    ( -0.5961162   0.9875     -0.324      )
    ( -0.6651      0.899      -0.3242     )
    ( -0.716       0.8054     -0.3231     )
    ( -0.7525      0.7103     -0.32       )
    ( -0.7801      0.6175     -0.3145     )
    ( -0.805       0.5312     -0.306      )
    ( -0.8281      0.4516     -0.298      )
    ( -0.8283      0.3619     -0.2889     )
    ( -0.779       0.2414     -0.28       )
    ( -0.6553      0.1094     -0.2543     )
    ( -0.44        0.025      -0.1563     )
    ( -0.022       0.02        0.         )
);



// ************************************************************************* // 

