/*---*- C++ -*-
 *
 * Greenwich OpenFOAM CFD Simulation Package
 *
 * Generated by GWpy v0.1.0.dev-8c9f512
 * Timestamp: 2015-11-25T15:41:15.741054+00:00
 *
 * 
 */

FoamFile             
{ 
    version              2.0 ;
    format               ascii ;
    class                dictionary ;
    object               "26.6025_" ;
}

// * * * * * * * * * * * * * * * * * * * * * * * * * * * * * * * * * * * * * // 

aoa                  
( -180. -175. -170. -165. -160. -155. -150. -145. -140. -135. -130.
  -125. -120. -115. -110. -105. -100.  -95.  -90.  -85.  -80.  -75.
   -70.  -65.  -60.  -55.  -50.  -45.  -40.  -35.  -30.  -25.  -20.
   -15.  -14.  -13.  -12.  -11.  -10.   -9.   -8.   -7.   -6.   -5.
    -4.   -3.   -2.   -1.    0.    1.    2.    3.    4.    5.    6.
     7.    8.    9.   10.   11.   12.   13.   14.   15.   16.   17.
    18.   19.   20.   25.   30.   35.   40.   45.   50.   55.   60.
    65.   70.   75.   80.   85.   90.   95.  100.  105.  110.  115.
   120.  125.  130.  135.  140.  145.  150.  155.  160.  165.  170.
   175.  180. );

polars               
(
    ( -0.022       0.02        0.         )
    (  0.539       0.025       0.1066     )
    (  0.7822      0.1092      0.1671     )
    (  0.789       0.2414      0.2195     )
    (  0.7879      0.362       0.2495     )
    (  0.8051      0.4517      0.2686     )
    (  0.816       0.5313      0.2793     )
    (  0.8018      0.6176      0.2888     )
    (  0.7661      0.7104      0.2999     )
    (  0.718       0.8056      0.3055     )
    (  0.6649      0.8992      0.3122     )
    (  0.606       0.9877      0.3159     )
    (  0.526769    1.068       0.3198     )
    (  0.411077    1.1375      0.322      )
    (  0.299359    1.1951      0.3212     )
    (  0.1936795   1.240568    0.3212     )
    (  0.0860385   1.2734      0.3197     )
    ( -0.0222      1.2933      0.3145     )
    ( -0.1279615   1.3         0.3079     )
    ( -0.230564    1.2933      0.301      )
    ( -0.335359    1.2733      0.2935     )
    ( -0.497385    1.240368    0.2827     )
    ( -0.6503465   1.1948      0.2713     )
    ( -0.766308    1.1372      0.2574     )
    ( -0.8679105   1.068       0.2453     )
    ( -0.9474      0.9878      0.2289     )
    ( -0.9919      0.8972      0.2116     )
    ( -1.0181      0.7969      0.1941     )
    ( -1.0193      0.6879      0.171      )
    ( -0.9892      0.5707      0.1379     )
    ( -0.921       0.4463      0.0993     )
    ( -0.8278      0.317       0.0624     )
    ( -0.8         0.1916      0.0328     )
    ( -0.8142695   0.1281883   0.01454235 )
    ( -0.830385    0.1169395   0.0098693  )
    ( -0.8400905   0.108333    0.006718   )
    ( -0.831129    0.09878421  0.004518   )
    ( -0.821206    0.08757006  0.00138855 )
    ( -0.7059655   0.06362077 -0.0042512  )
    ( -0.6456858   0.05778631 -0.01681665 )
    ( -0.5548285   0.04568766 -0.04122205 )
    ( -0.4623278   0.03621981 -0.05377845 )
    ( -0.3742168   0.02827891 -0.06603869 )
    ( -0.2688776   0.02255465 -0.07666939 )
    ( -0.161877    0.01596766 -0.0834155  )
    ( -0.03988796  0.011205   -0.089577   )
    (  0.08642889  0.0086615  -0.0956744  )
    (  0.2187724   0.00830125 -0.1009795  )
    (  0.3453966   0.0082051  -0.1051602  )
    (  0.4863068   0.0082051  -0.1096692  )
    (  0.6188658   0.0085333  -0.1138333  )
    (  0.7403119   0.0089615  -0.1166295  )
    (  0.8625374   0.00932175 -0.1199295  )
    (  0.9871028   0.009982   -0.1220141  )
    (  1.102889    0.0107461  -0.1230858  )
    (  1.2281      0.01191405 -0.1230782  )
    (  1.320254    0.01382945 -0.1231064  )
    (  1.368416    0.01709615 -0.1219153  )
    (  1.360973    0.02386285 -0.1204358  )
    (  1.334673    0.0404053  -0.1190794  )
    (  1.33581     0.05347209 -0.1184063  )
    (  1.326864    0.069603   -0.1188013  )
    (  1.315722    0.09010819 -0.1199128  )
    (  1.307943    0.1088839  -0.1207128  )
    (  1.306247    0.1285905  -0.1235077  )
    (  1.297143    0.1485534  -0.1247282  )
    (  1.288627    0.1661446  -0.1262115  )
    (  1.269822    0.1811678  -0.1268923  )
    (  1.258724    0.1956551  -0.1280923  )
    (  1.227167    0.3559     -0.1542     )
    (  1.204013    0.4797     -0.1693     )
    (  1.216295    0.5969     -0.1843     )
    (  1.288897    0.7011     -0.1993     )
    (  1.323602    0.8042     -0.2142     )
    (  1.333537    0.9        -0.2291     )
    (  1.285922    0.9852     -0.2439     )
    (  1.263       1.0628     -0.2586     )
    (  1.0454      1.1163     -0.2733     )
    (  0.8843715   1.1832     -0.2845     )
    (  0.710256    1.2349     -0.2939     )
    (  0.5485255   1.2715     -0.303      )
    (  0.411564    1.2931     -0.3132     )
    (  0.293205    1.3        -0.3148     )
    (  0.164077    1.2931     -0.325      )
    (  0.0231      1.2729     -0.3305     )
    ( -0.103359    1.24       -0.3317     )
    ( -0.2326025   1.1947     -0.3302     )
    ( -0.349282    1.1371     -0.3275     )
    ( -0.4643205   1.0678     -0.325      )
    ( -0.5956013   0.9875     -0.324      )
    ( -0.6651      0.899      -0.3242     )
    ( -0.716       0.8054     -0.3231     )
    ( -0.7525      0.7103     -0.32       )
    ( -0.7801      0.6175     -0.3145     )
    ( -0.805       0.5312     -0.306      )
    ( -0.8281      0.4516     -0.298      )
    ( -0.8283      0.3619     -0.2889     )
    ( -0.779       0.2414     -0.28       )
    ( -0.6553      0.1094     -0.2543     )
    ( -0.44        0.025      -0.1563     )
    ( -0.022       0.02        0.         )
);



// ************************************************************************* // 

