/*---*- C++ -*-
 *
 * Greenwich OpenFOAM CFD Simulation Package
 *
 * Generated by GWpy v0.1.0.dev-8c9f512
 * Timestamp: 2015-11-25T15:41:15.750604+00:00
 *
 * 
 */

FoamFile             
{ 
    version              2.0 ;
    format               ascii ;
    class                dictionary ;
    object               "27.0798_" ;
}

// * * * * * * * * * * * * * * * * * * * * * * * * * * * * * * * * * * * * * // 

aoa                  
( -180. -175. -170. -165. -160. -155. -150. -145. -140. -135. -130.
  -125. -120. -115. -110. -105. -100.  -95.  -90.  -85.  -80.  -75.
   -70.  -65.  -60.  -55.  -50.  -45.  -40.  -35.  -30.  -25.  -20.
   -15.  -14.  -13.  -12.  -11.  -10.   -9.   -8.   -7.   -6.   -5.
    -4.   -3.   -2.   -1.    0.    1.    2.    3.    4.    5.    6.
     7.    8.    9.   10.   11.   12.   13.   14.   15.   16.   17.
    18.   19.   20.   25.   30.   35.   40.   45.   50.   55.   60.
    65.   70.   75.   80.   85.   90.   95.  100.  105.  110.  115.
   120.  125.  130.  135.  140.  145.  150.  155.  160.  165.  170.
   175.  180. );

polars               
(
    (  -2.20000000e-02   2.00000000e-02   0.00000000e+00 )
    (   5.39000000e-01   2.50000000e-02   1.06600000e-01 )
    (   7.82200000e-01   1.09200000e-01   1.67100000e-01 )
    (   7.89000000e-01   2.41400000e-01   2.19500000e-01 )
    (   7.87900000e-01   3.62000000e-01   2.49500000e-01 )
    (   8.05100000e-01   4.51700000e-01   2.68600000e-01 )
    (   8.16000000e-01   5.31300000e-01   2.79300000e-01 )
    (   8.01800000e-01   6.17600000e-01   2.88800000e-01 )
    (   7.66100000e-01   7.10400000e-01   2.99900000e-01 )
    (   7.18000000e-01   8.05600000e-01   3.05500000e-01 )
    (   6.64900000e-01   8.99200000e-01   3.12200000e-01 )
    (   6.06000000e-01   9.87700000e-01   3.15900000e-01 )
    (   5.28487300e-01   1.06800000e+00   3.19800000e-01 )
    (   4.10504200e-01   1.13750000e+00   3.22000000e-01 )
    (   2.99168100e-01   1.19510000e+00   3.21200000e-01 )
    (   1.93584000e-01   1.24055800e+00   3.21200000e-01 )
    (   8.57521100e-02   1.27340000e+00   3.19700000e-01 )
    (  -2.22000000e-02   1.29330000e+00   3.14500000e-01 )
    (  -1.28247900e-01   1.30000000e+00   3.07900000e-01 )
    (  -2.31327700e-01   1.29330000e+00   3.01000000e-01 )
    (  -3.35168100e-01   1.27330000e+00   2.93500000e-01 )
    (  -4.94521200e-01   1.24035800e+00   2.82700000e-01 )
    (  -6.47769100e-01   1.19480000e+00   2.71300000e-01 )
    (  -7.64016900e-01   1.13720000e+00   2.57400000e-01 )
    (  -8.66096800e-01   1.06800000e+00   2.45300000e-01 )
    (  -9.47400000e-01   9.87800000e-01   2.28900000e-01 )
    (  -9.91900000e-01   8.97200000e-01   2.11600000e-01 )
    (  -1.01810000e+00   7.96900000e-01   1.94100000e-01 )
    (  -1.01930000e+00   6.87900000e-01   1.71000000e-01 )
    (  -9.89200000e-01   5.70700000e-01   1.37900000e-01 )
    (  -9.21000000e-01   4.46300000e-01   9.93000000e-02 )
    (  -8.27800000e-01   3.17000000e-01   6.24000000e-02 )
    (  -8.00000000e-01   1.91600000e-01   3.28000000e-02 )
    (  -8.12264900e-01   1.29763300e-01   1.42273300e-02 )
    (  -8.27521200e-01   1.19125500e-01   9.35381700e-03 )
    (  -8.34458400e-01   1.10815000e-01   6.33616000e-03 )
    (  -8.25210500e-01   1.01877100e-01   4.13616000e-03 )
    (  -8.14714700e-01   9.10161500e-02   7.29876300e-04 )
    (  -6.76468400e-01   7.14007300e-02  -4.86214400e-03 )
    (  -6.17773400e-01   6.43348500e-02  -1.69407500e-02 )
    (  -5.32796400e-01   5.17302600e-02  -3.93224000e-02 )
    (  -4.46252300e-01   4.15273800e-02  -5.19551700e-02 )
    (  -3.63678000e-01   3.26509700e-02  -6.42631400e-02 )
    (  -2.63837300e-01   2.61153000e-02  -7.54093300e-02 )
    (  -1.61304200e-01   1.81918700e-02  -8.25563600e-02 )
    (  -4.36968000e-02   1.21596000e-02  -8.90042400e-02 )
    (   8.12549700e-02   8.94788000e-03  -9.53689300e-02 )
    (   2.14266700e-01   8.53989900e-03  -1.00884000e-01 )
    (   3.41702300e-01   8.41511200e-03  -1.05208000e-01 )
    (   4.83032600e-01   8.41511200e-03  -1.09898300e-01 )
    (   6.16145100e-01   8.78149600e-03  -1.14081500e-01 )
    (   7.37992200e-01   9.24788000e-03  -1.16906300e-01 )
    (   8.60523300e-01   9.65585900e-03  -1.20206300e-01 )
    (   9.85346300e-01   1.03638400e-02  -1.22405400e-01 )
    (   1.10148500e+00   1.11470300e-02  -1.23439100e-01 )
    (   1.22661100e+00   1.23054400e-02  -1.23488600e-01 )
    (   1.32134200e+00   1.41062800e-02  -1.23555000e-01 )
    (   1.37151900e+00   1.71247900e-02  -1.22545300e-01 )
    (   1.36415100e+00   2.36432900e-02  -1.21161300e-01 )
    (   1.34330300e+00   3.91261400e-02  -1.19728500e-01 )
    (   1.34614800e+00   5.12001500e-02  -1.18855000e-01 )
    (   1.33605700e+00   6.63573600e-02  -1.19039900e-01 )
    (   1.32299600e+00   8.63279800e-02  -1.20065500e-01 )
    (   1.31159000e+00   1.04292300e-01  -1.20865500e-01 )
    (   1.30912000e+00   1.22958400e-01  -1.23450400e-01 )
    (   1.29930100e+00   1.41957200e-01  -1.24766400e-01 )
    (   1.28917100e+00   1.58622400e-01  -1.26125600e-01 )
    (   1.27090000e+00   1.72729100e-01  -1.26949600e-01 )
    (   1.25953600e+00   1.86319100e-01  -1.28149600e-01 )
    (   1.22096300e+00   3.55900000e-01  -1.54200000e-01 )
    (   1.19895400e+00   4.79700000e-01  -1.69300000e-01 )
    (   1.21161800e+00   5.96900000e-01  -1.84300000e-01 )
    (   1.29214300e+00   7.01100000e-01  -1.99300000e-01 )
    (   1.33152500e+00   8.04200000e-01  -2.14200000e-01 )
    (   1.34441900e+00   9.00000000e-01  -2.29100000e-01 )
    (   1.29394100e+00   9.85200000e-01  -2.43900000e-01 )
    (   1.26300000e+00   1.06280000e+00  -2.58600000e-01 )
    (   1.04540000e+00   1.11630000e+00  -2.73300000e-01 )
    (   8.86567100e-01   1.18320000e+00  -2.84500000e-01 )
    (   7.13310700e-01   1.23490000e+00  -2.93900000e-01 )
    (   5.49575600e-01   1.27150000e+00  -3.03000000e-01 )
    (   4.12327700e-01   1.29310000e+00  -3.13200000e-01 )
    (   2.94159600e-01   1.30000000e+00  -3.14800000e-01 )
    (   1.63504200e-01   1.29310000e+00  -3.25000000e-01 )
    (   2.31000000e-02   1.27290000e+00  -3.30500000e-01 )
    (  -1.03168100e-01   1.24000000e+00  -3.31700000e-01 )
    (  -2.33079800e-01   1.19470000e+00  -3.30200000e-01 )
    (  -3.49663800e-01   1.13710000e+00  -3.27500000e-01 )
    (  -4.64416000e-01   1.06780000e+00  -3.25000000e-01 )
    (  -5.95095400e-01   9.87500000e-01  -3.24000000e-01 )
    (  -6.65100000e-01   8.99000000e-01  -3.24200000e-01 )
    (  -7.16000000e-01   8.05400000e-01  -3.23100000e-01 )
    (  -7.52500000e-01   7.10300000e-01  -3.20000000e-01 )
    (  -7.80100000e-01   6.17500000e-01  -3.14500000e-01 )
    (  -8.05000000e-01   5.31200000e-01  -3.06000000e-01 )
    (  -8.28100000e-01   4.51600000e-01  -2.98000000e-01 )
    (  -8.28300000e-01   3.61900000e-01  -2.88900000e-01 )
    (  -7.79000000e-01   2.41400000e-01  -2.80000000e-01 )
    (  -6.55300000e-01   1.09400000e-01  -2.54300000e-01 )
    (  -4.40000000e-01   2.50000000e-02  -1.56300000e-01 )
    (  -2.20000000e-02   2.00000000e-02   0.00000000e+00 )
);



// ************************************************************************* // 

