/*---*- C++ -*-
 *
 * Greenwich OpenFOAM CFD Simulation Package
 *
 * Generated by GWpy v0.1.0.dev-8c9f512
 * Timestamp: 2015-11-25T15:41:15.762264+00:00
 *
 * 
 */

FoamFile             
{ 
    version              2.0 ;
    format               ascii ;
    class                dictionary ;
    object               "27.5571_" ;
}

// * * * * * * * * * * * * * * * * * * * * * * * * * * * * * * * * * * * * * // 

aoa                  
( -180. -175. -170. -165. -160. -155. -150. -145. -140. -135. -130.
  -125. -120. -115. -110. -105. -100.  -95.  -90.  -85.  -80.  -75.
   -70.  -65.  -60.  -55.  -50.  -45.  -40.  -35.  -30.  -25.  -20.
   -15.  -14.  -13.  -12.  -11.  -10.   -9.   -8.   -7.   -6.   -5.
    -4.   -3.   -2.   -1.    0.    1.    2.    3.    4.    5.    6.
     7.    8.    9.   10.   11.   12.   13.   14.   15.   16.   17.
    18.   19.   20.   25.   30.   35.   40.   45.   50.   55.   60.
    65.   70.   75.   80.   85.   90.   95.  100.  105.  110.  115.
   120.  125.  130.  135.  140.  145.  150.  155.  160.  165.  170.
   175.  180. );

polars               
(
    (  -2.20000000e-02   2.00000000e-02   0.00000000e+00 )
    (   5.39000000e-01   2.50000000e-02   1.06600000e-01 )
    (   7.82200000e-01   1.09200000e-01   1.67100000e-01 )
    (   7.89000000e-01   2.41400000e-01   2.19500000e-01 )
    (   7.87900000e-01   3.62000000e-01   2.49500000e-01 )
    (   8.05100000e-01   4.51700000e-01   2.68600000e-01 )
    (   8.16000000e-01   5.31300000e-01   2.79300000e-01 )
    (   8.01800000e-01   6.17600000e-01   2.88800000e-01 )
    (   7.66100000e-01   7.10400000e-01   2.99900000e-01 )
    (   7.18000000e-01   8.05600000e-01   3.05500000e-01 )
    (   6.64900000e-01   8.99200000e-01   3.12200000e-01 )
    (   6.06000000e-01   9.87700000e-01   3.15900000e-01 )
    (   5.30205500e-01   1.06800000e+00   3.19800000e-01 )
    (   4.09931500e-01   1.13750000e+00   3.22000000e-01 )
    (   2.98977200e-01   1.19510000e+00   3.21200000e-01 )
    (   1.93488600e-01   1.24054900e+00   3.21200000e-01 )
    (   8.54657400e-02   1.27340000e+00   3.19700000e-01 )
    (  -2.22000000e-02   1.29330000e+00   3.14500000e-01 )
    (  -1.28534300e-01   1.30000000e+00   3.07900000e-01 )
    (  -2.32091400e-01   1.29330000e+00   3.01000000e-01 )
    (  -3.34977100e-01   1.27330000e+00   2.93500000e-01 )
    (  -4.91657400e-01   1.24034900e+00   2.82700000e-01 )
    (  -6.45191700e-01   1.19480000e+00   2.71300000e-01 )
    (  -7.61725900e-01   1.13720000e+00   2.57400000e-01 )
    (  -8.64283000e-01   1.06800000e+00   2.45300000e-01 )
    (  -9.47400000e-01   9.87800000e-01   2.28900000e-01 )
    (  -9.91900000e-01   8.97200000e-01   2.11600000e-01 )
    (  -1.01810000e+00   7.96900000e-01   1.94100000e-01 )
    (  -1.01930000e+00   6.87900000e-01   1.71000000e-01 )
    (  -9.89200000e-01   5.70700000e-01   1.37900000e-01 )
    (  -9.21000000e-01   4.46300000e-01   9.93000000e-02 )
    (  -8.27800000e-01   3.17000000e-01   6.24000000e-02 )
    (  -8.00000000e-01   1.91600000e-01   3.28000000e-02 )
    (  -8.10260200e-01   1.31338400e-01   1.39123100e-02 )
    (  -8.24657400e-01   1.21311500e-01   8.83833100e-03 )
    (  -8.28826200e-01   1.13296900e-01   5.95432000e-03 )
    (  -8.19291900e-01   1.04970000e-01   3.75432000e-03 )
    (  -8.08223400e-01   9.44622600e-02   7.12014700e-05 )
    (  -6.46971200e-01   7.91807300e-02  -5.47308800e-03 )
    (  -5.89860800e-01   7.08834200e-02  -1.70648500e-02 )
    (  -5.10764200e-01   5.77728900e-02  -3.74227400e-02 )
    (  -4.30176900e-01   4.68349600e-02  -5.01318800e-02 )
    (  -3.53139200e-01   3.70230400e-02  -6.24875800e-02 )
    (  -2.58797000e-01   2.96759700e-02  -7.41492500e-02 )
    (  -1.60731500e-01   2.04160900e-02  -8.16972200e-02 )
    (  -4.75056600e-02   1.31142000e-02  -8.84314800e-02 )
    (   7.60810300e-02   9.23426100e-03  -9.50634600e-02 )
    (   2.09761000e-01   8.77855000e-03  -1.00788600e-01 )
    (   3.38008000e-01   8.62512500e-03  -1.05255700e-01 )
    (   4.79758300e-01   8.62512500e-03  -1.10127400e-01 )
    (   6.13424500e-01   9.02969200e-03  -1.14329700e-01 )
    (   7.35672500e-01   9.53426000e-03  -1.17183100e-01 )
    (   8.58509100e-01   9.98997000e-03  -1.20483100e-01 )
    (   9.83589900e-01   1.07456800e-02  -1.22796800e-01 )
    (   1.10008200e+00   1.15479600e-02  -1.23792300e-01 )
    (   1.22512200e+00   1.26968200e-02  -1.23899100e-01 )
    (   1.32243000e+00   1.43831200e-02  -1.24003700e-01 )
    (   1.37462100e+00   1.71534300e-02  -1.23175400e-01 )
    (   1.36733000e+00   2.34237300e-02  -1.21886800e-01 )
    (   1.35193200e+00   3.78469700e-02  -1.20377700e-01 )
    (   1.35648700e+00   4.89282000e-02  -1.19303700e-01 )
    (   1.34525000e+00   6.31117200e-02  -1.19278600e-01 )
    (   1.33027000e+00   8.25477600e-02  -1.20218300e-01 )
    (   1.31523600e+00   9.97007000e-02  -1.21018300e-01 )
    (   1.31199400e+00   1.17326200e-01  -1.23393100e-01 )
    (   1.30145800e+00   1.35360900e-01  -1.24804600e-01 )
    (   1.28971500e+00   1.51100100e-01  -1.26039700e-01 )
    (   1.27197900e+00   1.64290500e-01  -1.27006800e-01 )
    (   1.26034700e+00   1.76983100e-01  -1.28206800e-01 )
    (   1.21475800e+00   3.55900000e-01  -1.54200000e-01 )
    (   1.19389500e+00   4.79700000e-01  -1.69300000e-01 )
    (   1.20694000e+00   5.96900000e-01  -1.84300000e-01 )
    (   1.29538800e+00   7.01100000e-01  -1.99300000e-01 )
    (   1.33944800e+00   8.04200000e-01  -2.14200000e-01 )
    (   1.35530200e+00   9.00000000e-01  -2.29100000e-01 )
    (   1.30195900e+00   9.85200000e-01  -2.43900000e-01 )
    (   1.26300000e+00   1.06280000e+00  -2.58600000e-01 )
    (   1.04540000e+00   1.11630000e+00  -2.73300000e-01 )
    (   8.88762700e-01   1.18320000e+00  -2.84500000e-01 )
    (   7.16365500e-01   1.23490000e+00  -2.93900000e-01 )
    (   5.50625600e-01   1.27150000e+00  -3.03000000e-01 )
    (   4.13091400e-01   1.29310000e+00  -3.13200000e-01 )
    (   2.95114200e-01   1.30000000e+00  -3.14800000e-01 )
    (   1.62931500e-01   1.29310000e+00  -3.25000000e-01 )
    (   2.31000000e-02   1.27290000e+00  -3.30500000e-01 )
    (  -1.02977200e-01   1.24000000e+00  -3.31700000e-01 )
    (  -2.33557100e-01   1.19470000e+00  -3.30200000e-01 )
    (  -3.50045700e-01   1.13710000e+00  -3.27500000e-01 )
    (  -4.64511400e-01   1.06780000e+00  -3.25000000e-01 )
    (  -5.94589500e-01   9.87500000e-01  -3.24000000e-01 )
    (  -6.65100000e-01   8.99000000e-01  -3.24200000e-01 )
    (  -7.16000000e-01   8.05400000e-01  -3.23100000e-01 )
    (  -7.52500000e-01   7.10300000e-01  -3.20000000e-01 )
    (  -7.80100000e-01   6.17500000e-01  -3.14500000e-01 )
    (  -8.05000000e-01   5.31200000e-01  -3.06000000e-01 )
    (  -8.28100000e-01   4.51600000e-01  -2.98000000e-01 )
    (  -8.28300000e-01   3.61900000e-01  -2.88900000e-01 )
    (  -7.79000000e-01   2.41400000e-01  -2.80000000e-01 )
    (  -6.55300000e-01   1.09400000e-01  -2.54300000e-01 )
    (  -4.40000000e-01   2.50000000e-02  -1.56300000e-01 )
    (  -2.20000000e-02   2.00000000e-02   0.00000000e+00 )
);



// ************************************************************************* // 

