/*---*- C++ -*-
 *
 * Greenwich OpenFOAM CFD Simulation Package
 *
 * Generated by GWpy v0.1.0.dev-8c9f512
 * Timestamp: 2015-11-25T15:41:15.770808+00:00
 *
 * 
 */

FoamFile             
{ 
    version              2.0 ;
    format               ascii ;
    class                dictionary ;
    object               "28.0485_" ;
}

// * * * * * * * * * * * * * * * * * * * * * * * * * * * * * * * * * * * * * // 

aoa                  
( -180. -175. -170. -165. -160. -155. -150. -145. -140. -135. -130.
  -125. -120. -115. -110. -105. -100.  -95.  -90.  -85.  -80.  -75.
   -70.  -65.  -60.  -55.  -50.  -45.  -40.  -35.  -30.  -25.  -20.
   -15.  -14.  -13.  -12.  -11.  -10.   -9.   -8.   -7.   -6.   -5.
    -4.   -3.   -2.   -1.    0.    1.    2.    3.    4.    5.    6.
     7.    8.    9.   10.   11.   12.   13.   14.   15.   16.   17.
    18.   19.   20.   25.   30.   35.   40.   45.   50.   55.   60.
    65.   70.   75.   80.   85.   90.   95.  100.  105.  110.  115.
   120.  125.  130.  135.  140.  145.  150.  155.  160.  165.  170.
   175.  180. );

polars               
(
    (  -2.20000000e-02   2.00000000e-02   0.00000000e+00 )
    (   5.39000000e-01   2.50000000e-02   1.06600000e-01 )
    (   7.82200000e-01   1.09200000e-01   1.67100000e-01 )
    (   7.89000000e-01   2.41400000e-01   2.19500000e-01 )
    (   7.87900000e-01   3.62000000e-01   2.49500000e-01 )
    (   8.05100000e-01   4.51700000e-01   2.68600000e-01 )
    (   8.16000000e-01   5.31300000e-01   2.79300000e-01 )
    (   8.01800000e-01   6.17600000e-01   2.88800000e-01 )
    (   7.66100000e-01   7.10400000e-01   2.99900000e-01 )
    (   7.18000000e-01   8.05600000e-01   3.05500000e-01 )
    (   6.64900000e-01   8.99200000e-01   3.12200000e-01 )
    (   6.06000000e-01   9.87700000e-01   3.15900000e-01 )
    (   5.31974600e-01   1.06800000e+00   3.19800000e-01 )
    (   4.09341800e-01   1.13750000e+00   3.22000000e-01 )
    (   2.98780600e-01   1.19510000e+00   3.21200000e-01 )
    (   1.93390300e-01   1.24053900e+00   3.21200000e-01 )
    (   8.51708900e-02   1.27340000e+00   3.19700000e-01 )
    (  -2.22000000e-02   1.29330000e+00   3.14500000e-01 )
    (  -1.28829100e-01   1.30000000e+00   3.07900000e-01 )
    (  -2.32877600e-01   1.29330000e+00   3.01000000e-01 )
    (  -3.34780600e-01   1.27330000e+00   2.93500000e-01 )
    (  -4.88709000e-01   1.24033900e+00   2.82700000e-01 )
    (  -6.42538100e-01   1.19480000e+00   2.71300000e-01 )
    (  -7.59367200e-01   1.13720000e+00   2.57400000e-01 )
    (  -8.62415700e-01   1.06800000e+00   2.45300000e-01 )
    (  -9.47400000e-01   9.87800000e-01   2.28900000e-01 )
    (  -9.91900000e-01   8.97200000e-01   2.11600000e-01 )
    (  -1.01810000e+00   7.96900000e-01   1.94100000e-01 )
    (  -1.01930000e+00   6.87900000e-01   1.71000000e-01 )
    (  -9.89200000e-01   5.70700000e-01   1.37900000e-01 )
    (  -9.21000000e-01   4.46300000e-01   9.93000000e-02 )
    (  -8.27800000e-01   3.17000000e-01   6.24000000e-02 )
    (  -8.00000000e-01   1.91600000e-01   3.28000000e-02 )
    (  -8.08196300e-01   1.32960100e-01   1.35879900e-02 )
    (  -8.21709000e-01   1.23562100e-01   8.30762000e-03 )
    (  -8.23027700e-01   1.15852200e-01   5.56120000e-03 )
    (  -8.13198600e-01   1.08154300e-01   3.36120000e-03 )
    (  -8.01540400e-01   9.80101700e-02  -6.06930300e-04 )
    (  -6.16602700e-01   8.71905500e-02  -6.10208000e-03 )
    (  -5.61123700e-01   7.76254200e-02  -1.71926100e-02 )
    (  -4.88081200e-01   6.39940100e-02  -3.54669700e-02 )
    (  -4.13626500e-01   5.22993200e-02  -4.82547300e-02 )
    (  -3.42289100e-01   4.15242600e-02  -6.06595800e-02 )
    (  -2.53607800e-01   3.33418100e-02  -7.28519600e-02 )
    (  -1.60141800e-01   2.27060100e-02  -8.08127000e-02 )
    (  -5.14270300e-02   1.40970000e-02  -8.78418000e-02 )
    (   7.07542600e-02   9.52910100e-03  -9.47489600e-02 )
    (   2.05122200e-01   9.02424900e-03  -1.00690300e-01 )
    (   3.34204600e-01   8.84134000e-03  -1.05304800e-01 )
    (   4.76387300e-01   8.84134000e-03  -1.10363300e-01 )
    (   6.10623500e-01   9.28522000e-03  -1.14585200e-01 )
    (   7.33284300e-01   9.82910000e-03  -1.17468100e-01 )
    (   8.56435400e-01   1.03339500e-02  -1.20768100e-01 )
    (   9.81781500e-01   1.11388000e-02  -1.23199800e-01 )
    (   1.09863700e+00   1.19607400e-02  -1.24155900e-01 )
    (   1.22358900e+00   1.30997700e-02  -1.24321700e-01 )
    (   1.32355100e+00   1.46681300e-02  -1.24465600e-01 )
    (   1.37781500e+00   1.71829100e-02  -1.23824000e-01 )
    (   1.37060300e+00   2.31976900e-02  -1.22633700e-01 )
    (   1.36081700e+00   3.65300200e-02  -1.21046000e-01 )
    (   1.36713100e+00   4.65891400e-02  -1.19765600e-01 )
    (   1.35471400e+00   5.97702000e-02  -1.19524200e-01 )
    (   1.33775900e+00   7.86558800e-02  -1.20375500e-01 )
    (   1.31899000e+00   9.49734300e-02  -1.21175500e-01 )
    (   1.31495200e+00   1.11527700e-01  -1.23334200e-01 )
    (   1.30367900e+00   1.28569700e-01  -1.24843900e-01 )
    (   1.29027500e+00   1.43355600e-01  -1.25951300e-01 )
    (   1.27309000e+00   1.55602500e-01  -1.27065800e-01 )
    (   1.26118200e+00   1.67371300e-01  -1.28265800e-01 )
    (   1.20836900e+00   3.55900000e-01  -1.54200000e-01 )
    (   1.18868600e+00   4.79700000e-01  -1.69300000e-01 )
    (   1.20212500e+00   5.96900000e-01  -1.84300000e-01 )
    (   1.29873000e+00   7.01100000e-01  -1.99300000e-01 )
    (   1.34760500e+00   8.04200000e-01  -2.14200000e-01 )
    (   1.36650600e+00   9.00000000e-01  -2.29100000e-01 )
    (   1.31021500e+00   9.85200000e-01  -2.43900000e-01 )
    (   1.26300000e+00   1.06280000e+00  -2.58600000e-01 )
    (   1.04540000e+00   1.11630000e+00  -2.73300000e-01 )
    (   8.91023100e-01   1.18320000e+00  -2.84500000e-01 )
    (   7.19510400e-01   1.23490000e+00  -2.93900000e-01 )
    (   5.51706700e-01   1.27150000e+00  -3.03000000e-01 )
    (   4.13877600e-01   1.29310000e+00  -3.13200000e-01 )
    (   2.96097000e-01   1.30000000e+00  -3.14800000e-01 )
    (   1.62341800e-01   1.29310000e+00  -3.25000000e-01 )
    (   2.31000000e-02   1.27290000e+00  -3.30500000e-01 )
    (  -1.02780600e-01   1.24000000e+00  -3.31700000e-01 )
    (  -2.34048500e-01   1.19470000e+00  -3.30200000e-01 )
    (  -3.50438800e-01   1.13710000e+00  -3.27500000e-01 )
    (  -4.64609700e-01   1.06780000e+00  -3.25000000e-01 )
    (  -5.94068600e-01   9.87500000e-01  -3.24000000e-01 )
    (  -6.65100000e-01   8.99000000e-01  -3.24200000e-01 )
    (  -7.16000000e-01   8.05400000e-01  -3.23100000e-01 )
    (  -7.52500000e-01   7.10300000e-01  -3.20000000e-01 )
    (  -7.80100000e-01   6.17500000e-01  -3.14500000e-01 )
    (  -8.05000000e-01   5.31200000e-01  -3.06000000e-01 )
    (  -8.28100000e-01   4.51600000e-01  -2.98000000e-01 )
    (  -8.28300000e-01   3.61900000e-01  -2.88900000e-01 )
    (  -7.79000000e-01   2.41400000e-01  -2.80000000e-01 )
    (  -6.55300000e-01   1.09400000e-01  -2.54300000e-01 )
    (  -4.40000000e-01   2.50000000e-02  -1.56300000e-01 )
    (  -2.20000000e-02   2.00000000e-02   0.00000000e+00 )
);



// ************************************************************************* // 

