/*---*- C++ -*-
 *
 * Greenwich OpenFOAM CFD Simulation Package
 *
 * Generated by GWpy v0.1.0.dev-8c9f512
 * Timestamp: 2015-11-25T15:41:15.788552+00:00
 *
 * 
 */

FoamFile             
{ 
    version              2.0 ;
    format               ascii ;
    class                dictionary ;
    object               "29.0264_" ;
}

// * * * * * * * * * * * * * * * * * * * * * * * * * * * * * * * * * * * * * // 

aoa                  
( -180. -175. -170. -165. -160. -155. -150. -145. -140. -135. -130.
  -125. -120. -115. -110. -105. -100.  -95.  -90.  -85.  -80.  -75.
   -70.  -65.  -60.  -55.  -50.  -45.  -40.  -35.  -30.  -25.  -20.
   -15.  -14.  -13.  -12.  -11.  -10.   -9.   -8.   -7.   -6.   -5.
    -4.   -3.   -2.   -1.    0.    1.    2.    3.    4.    5.    6.
     7.    8.    9.   10.   11.   12.   13.   14.   15.   16.   17.
    18.   19.   20.   25.   30.   35.   40.   45.   50.   55.   60.
    65.   70.   75.   80.   85.   90.   95.  100.  105.  110.  115.
   120.  125.  130.  135.  140.  145.  150.  155.  160.  165.  170.
   175.  180. );

polars               
(
    ( -0.022       0.02        0.         )
    (  0.539       0.025       0.1066     )
    (  0.7822      0.1092      0.1671     )
    (  0.789       0.2414      0.2195     )
    (  0.7879      0.362       0.2495     )
    (  0.8051      0.4517      0.2686     )
    (  0.816       0.5313      0.2793     )
    (  0.8018      0.6176      0.2888     )
    (  0.7661      0.7104      0.2999     )
    (  0.718       0.8056      0.3055     )
    (  0.6649      0.8992      0.3122     )
    (  0.606       0.9877      0.3159     )
    (  0.535495    1.068       0.3198     )
    (  0.4081683   1.1375      0.322      )
    (  0.2983894   1.1951      0.3212     )
    (  0.1931947   1.240519    0.3212     )
    (  0.08458416  1.2734      0.3197     )
    ( -0.0222      1.2933      0.3145     )
    ( -0.1294158   1.3         0.3079     )
    ( -0.2344422   1.2933      0.301      )
    ( -0.3343894   1.2733      0.2935     )
    ( -0.4828416   1.240319    0.2827     )
    ( -0.6372575   1.1948      0.2713     )
    ( -0.7546733   1.1372      0.2574     )
    ( -0.8586997   1.068       0.2453     )
    ( -0.9474      0.9878      0.2289     )
    ( -0.9919      0.8972      0.2116     )
    ( -1.0181      0.7969      0.1941     )
    ( -1.0193      0.6879      0.171      )
    ( -0.9892      0.5707      0.1379     )
    ( -0.921       0.4463      0.0993     )
    ( -0.8278      0.317       0.0624     )
    ( -0.8         0.1916      0.0328     )
    ( -0.8040891   0.1361871   0.01294258 )
    ( -0.8158416   0.1280409   0.00725149 )
    ( -0.8114885   0.1209373   0.00477888 )
    ( -0.8010726   0.1144911   0.00257888 )
    ( -0.788241    0.1050706  -0.00195643 )
    ( -0.5561685   0.1031303  -0.00735379 )
    ( -0.5039362   0.09104221 -0.01744686 )
    ( -0.4429414   0.07637422 -0.03157493 )
    ( -0.3806909   0.06317357 -0.04451916 )
    ( -0.3206971   0.05048182 -0.05702179 )
    ( -0.2432812   0.04063694 -0.0702703  )
    ( -0.1589683   0.02726302 -0.07905248 )
    ( -0.05923067  0.0160528  -0.08666832 )
    (  0.06015383  0.01011584 -0.0941231  )
    (  0.1958908   0.0095132  -0.1004947  )
    (  0.3266357   0.00927162 -0.1054026  )
    (  0.4696789   0.00927162 -0.1108327  )
    (  0.6050496   0.00979373 -0.1150937  )
    (  0.7285317   0.01041584 -0.1180353  )
    (  0.8523086   0.01101848 -0.1213353  )
    (  0.9781829   0.01192112 -0.1240016  )
    (  1.095762    0.01278218 -0.1248795  )
    (  1.220538    0.01390165 -0.1251627  )
    (  1.32578     0.01523531 -0.1253848  )
    (  1.384172    0.01724158 -0.1251148  )
    (  1.377116    0.02274786 -0.1241201  )
    (  1.378497    0.03390925 -0.1223759  )
    (  1.388312    0.04193434 -0.1206848  )
    (  1.373549    0.05312048 -0.1200132  )
    (  1.352662    0.07091092 -0.1206884  )
    (  1.326462    0.08556604 -0.1214884  )
    (  1.320839    0.09998848 -0.1232168  )
    (  1.308099    0.1150552  -0.1249221  )
    (  1.29139     0.1279439  -0.1257752  )
    (  1.2753      0.1383133  -0.1271832  )
    (  1.262845    0.1482436  -0.1283832  )
    (  1.195657    0.3559     -0.1542     )
    (  1.17832     0.4797     -0.1693     )
    (  1.192541    0.5969     -0.1843     )
    (  1.30538     0.7011     -0.1993     )
    (  1.363838    0.8042     -0.2142     )
    (  1.388802    0.9        -0.2291     )
    (  1.326644    0.9852     -0.2439     )
    (  1.263       1.0628     -0.2586     )
    (  1.0454      1.1163     -0.2733     )
    (  0.8955214   1.1832     -0.2845     )
    (  0.7257689   1.2349     -0.2939     )
    (  0.5538581   1.2715     -0.303      )
    (  0.4154422   1.2931     -0.3132     )
    (  0.2980528   1.3        -0.3148     )
    (  0.1611683   1.2931     -0.325      )
    (  0.0231      1.2729     -0.3305     )
    ( -0.1023894   1.24       -0.3317     )
    ( -0.2350264   1.1947     -0.3302     )
    ( -0.3512211   1.1371     -0.3275     )
    ( -0.4648053   1.0678     -0.325      )
    ( -0.593032    0.9875     -0.324      )
    ( -0.6651      0.899      -0.3242     )
    ( -0.716       0.8054     -0.3231     )
    ( -0.7525      0.7103     -0.32       )
    ( -0.7801      0.6175     -0.3145     )
    ( -0.805       0.5312     -0.306      )
    ( -0.8281      0.4516     -0.298      )
    ( -0.8283      0.3619     -0.2889     )
    ( -0.779       0.2414     -0.28       )
    ( -0.6553      0.1094     -0.2543     )
    ( -0.44        0.025      -0.1563     )
    ( -0.022       0.02        0.         )
);



// ************************************************************************* // 

