/*---*- C++ -*-
 *
 * Greenwich OpenFOAM CFD Simulation Package
 *
 * Generated by GWpy v0.1.0.dev-8c9f512
 * Timestamp: 2015-11-25T15:41:15.798886+00:00
 *
 * 
 */

FoamFile             
{ 
    version              2.0 ;
    format               ascii ;
    class                dictionary ;
    object               "29.5192_" ;
}

// * * * * * * * * * * * * * * * * * * * * * * * * * * * * * * * * * * * * * // 

aoa                  
( -180. -175. -170. -165. -160. -155. -150. -145. -140. -135. -130.
  -125. -120. -115. -110. -105. -100.  -95.  -90.  -85.  -80.  -75.
   -70.  -65.  -60.  -55.  -50.  -45.  -40.  -35.  -30.  -25.  -20.
   -15.  -14.  -13.  -12.  -11.  -10.   -9.   -8.   -7.   -6.   -5.
    -4.   -3.   -2.   -1.    0.    1.    2.    3.    4.    5.    6.
     7.    8.    9.   10.   11.   12.   13.   14.   15.   16.   17.
    18.   19.   20.   25.   30.   35.   40.   45.   50.   55.   60.
    65.   70.   75.   80.   85.   90.   95.  100.  105.  110.  115.
   120.  125.  130.  135.  140.  145.  150.  155.  160.  165.  170.
   175.  180. );

polars               
(
    ( -0.022       0.02        0.         )
    (  0.539       0.025       0.1066     )
    (  0.7822      0.1092      0.1671     )
    (  0.789       0.2414      0.2195     )
    (  0.7879      0.362       0.2495     )
    (  0.8051      0.4517      0.2686     )
    (  0.816       0.5313      0.2793     )
    (  0.8018      0.6176      0.2888     )
    (  0.7661      0.7104      0.2999     )
    (  0.718       0.8056      0.3055     )
    (  0.6649      0.8992      0.3122     )
    (  0.606       0.9877      0.3159     )
    (  0.5372691   1.068       0.3198     )
    (  0.407577    1.1375      0.322      )
    (  0.2981923   1.1951      0.3212     )
    (  0.1930962   1.24051     0.3212     )
    (  0.08428848  1.2734      0.3197     )
    ( -0.0222      1.2933      0.3145     )
    ( -0.1297115   1.3         0.3079     )
    ( -0.2352307   1.2933      0.301      )
    ( -0.3341923   1.2733      0.2935     )
    ( -0.4798848   1.24031     0.2827     )
    ( -0.6345963   1.1948      0.2713     )
    ( -0.7523078   1.1372      0.2574     )
    ( -0.8568271   1.068       0.2453     )
    ( -0.9474      0.9878      0.2289     )
    ( -0.9919      0.8972      0.2116     )
    ( -1.0181      0.7969      0.1941     )
    ( -1.0193      0.6879      0.171      )
    ( -0.9892      0.5707      0.1379     )
    ( -0.921       0.4463      0.0993     )
    ( -0.8278      0.317       0.0624     )
    ( -0.8         0.1916      0.0328     )
    ( -0.8020194   0.1378134   0.01261733 )
    ( -0.8128848   0.1302979   0.00671927 )
    ( -0.8056735   0.1234998   0.00438464 )
    ( -0.7949619   0.1176844   0.00218464 )
    ( -0.7815388   0.1086286  -0.0026365  )
    ( -0.5257134   0.111163   -0.00798458 )
    ( -0.4751172   0.09780341 -0.01757499 )
    ( -0.4201938   0.08261306 -0.02961359 )
    ( -0.3640934   0.0686535  -0.04263666 )
    ( -0.3098161   0.05499586 -0.05518857 )
    ( -0.2380773   0.04431323 -0.06896931 )
    ( -0.158377    0.02955947 -0.07816544 )
    ( -0.06316321  0.0170384  -0.08607696 )
    (  0.05481188  0.01041152 -0.09380771 )
    (  0.1912388   0.0097596  -0.1003962  )
    (  0.3228214   0.00948845 -0.1054519  )
    (  0.4662983   0.00948845 -0.1110692  )
    (  0.6022406   0.01004998 -0.11535    )
    (  0.7261367   0.01071152 -0.1183211  )
    (  0.850229    0.01136344 -0.1216211  )
    (  0.9763694   0.01231536 -0.1244057  )
    (  1.094314    0.01319613 -0.1252442  )
    (  1.219       0.01430574 -0.1255865  )
    (  1.326904    0.01552114 -0.1258481  )
    (  1.387375    0.01727115 -0.1257653  )
    (  1.380398    0.02252117 -0.1248692  )
    (  1.387407    0.03258855 -0.1230461  )
    (  1.398986    0.03958861 -0.121148   )
    (  1.38304     0.04976945 -0.1202596  )
    (  1.360173    0.06700794 -0.1208461  )
    (  1.330227    0.0808253  -0.1216461  )
    (  1.323806    0.09417345 -0.1231577  )
    (  1.310327    0.1082447  -0.1249615  )
    (  1.291952    0.1201774  -0.1256865  )
    (  1.276413    0.1296006  -0.1272423  )
    (  1.263683    0.1386045  -0.1284423  )
    (  1.18925     0.3559     -0.1542     )
    (  1.173096    0.4797     -0.1693     )
    (  1.187712    0.5969     -0.1843     )
    (  1.308731    0.7011     -0.1993     )
    (  1.372019    0.8042     -0.2142     )
    (  1.400038    0.9        -0.2291     )
    (  1.334923    0.9852     -0.2439     )
    (  1.263       1.0628     -0.2586     )
    (  1.0454      1.1163     -0.2733     )
    (  0.8977883   1.1832     -0.2845     )
    (  0.7289228   1.2349     -0.2939     )
    (  0.5549423   1.2715     -0.303      )
    (  0.4162307   1.2931     -0.3132     )
    (  0.2990384   1.3        -0.3148     )
    (  0.160577    1.2931     -0.325      )
    (  0.0231      1.2729     -0.3305     )
    ( -0.1021923   1.24       -0.3317     )
    ( -0.2355192   1.1947     -0.3302     )
    ( -0.3516154   1.1371     -0.3275     )
    ( -0.4649038   1.0678     -0.325      )
    ( -0.5925096   0.9875     -0.324      )
    ( -0.6651      0.899      -0.3242     )
    ( -0.716       0.8054     -0.3231     )
    ( -0.7525      0.7103     -0.32       )
    ( -0.7801      0.6175     -0.3145     )
    ( -0.805       0.5312     -0.306      )
    ( -0.8281      0.4516     -0.298      )
    ( -0.8283      0.3619     -0.2889     )
    ( -0.779       0.2414     -0.28       )
    ( -0.6553      0.1094     -0.2543     )
    ( -0.44        0.025      -0.1563     )
    ( -0.022       0.02        0.         )
);



// ************************************************************************* // 

