/*---*- C++ -*-
 *
 * Greenwich OpenFOAM CFD Simulation Package
 *
 * Generated by GWpy v0.1.0.dev-8c9f512
 * Timestamp: 2015-11-25T15:41:15.808344+00:00
 *
 * 
 */

FoamFile             
{ 
    version              2.0 ;
    format               ascii ;
    class                dictionary ;
    object               "30.0484_" ;
}

// * * * * * * * * * * * * * * * * * * * * * * * * * * * * * * * * * * * * * // 

aoa                  
( -180. -175. -170. -165. -160. -155. -150. -145. -140. -135. -130.
  -125. -120. -115. -110. -105. -100.  -95.  -90.  -85.  -80.  -75.
   -70.  -65.  -60.  -55.  -50.  -45.  -40.  -35.  -30.  -25.  -20.
   -15.  -14.  -13.  -12.  -11.  -10.   -9.   -8.   -7.   -6.   -5.
    -4.   -3.   -2.   -1.    0.    1.    2.    3.    4.    5.    6.
     7.    8.    9.   10.   11.   12.   13.   14.   15.   16.   17.
    18.   19.   20.   25.   30.   35.   40.   45.   50.   55.   60.
    65.   70.   75.   80.   85.   90.   95.  100.  105.  110.  115.
   120.  125.  130.  135.  140.  145.  150.  155.  160.  165.  170.
   175.  180. );

polars               
(
    ( -0.022       0.02001936  0.         )
    (  0.539       0.0250484   0.1066     )
    (  0.7822      0.1092      0.1671     )
    (  0.789       0.2414      0.2195     )
    (  0.7879      0.362       0.2495     )
    (  0.8051      0.4517      0.2686     )
    (  0.816       0.5313      0.2793     )
    (  0.8018      0.6176      0.2888     )
    (  0.7661      0.7104      0.2999     )
    (  0.718       0.8056      0.3055     )
    (  0.6649      0.8992      0.3122     )
    (  0.606       0.9877      0.3159     )
    (  0.5389419   1.068       0.3198     )
    (  0.4069806   1.1375      0.322      )
    (  0.298       1.1951      0.3212     )
    (  0.1930387   1.240501    0.3212     )
    (  0.08399032  1.2734      0.3197     )
    ( -0.02213998  1.2933      0.3145     )
    ( -0.1299419   1.3         0.3079     )
    ( -0.236029    1.2933      0.301      )
    ( -0.3342033   1.2733      0.2935     )
    ( -0.4773194   1.240301    0.2827     )
    ( -0.632184    1.1948      0.2713     )
    ( -0.7502323   1.1372      0.2574     )
    ( -0.8550774   1.068       0.2453     )
    ( -0.9474      0.9878      0.2289     )
    ( -0.9919      0.8972      0.2116     )
    ( -1.0181      0.7969      0.1941     )
    ( -1.0193      0.6879      0.171      )
    ( -0.9892      0.5707      0.1379     )
    ( -0.921       0.4463      0.0993     )
    ( -0.8281601   0.317       0.0624     )
    ( -0.8         0.1916      0.0328     )
    ( -0.798761    0.1392877   0.01237066 )
    ( -0.8084802   0.1323654   0.00629487 )
    ( -0.7982866   0.1258713   0.00409874 )
    ( -0.7872092   0.120619    0.00188809 )
    ( -0.7731026   0.1119393  -0.00320029 )
    ( -0.4951917   0.1186844  -0.00858548 )
    ( -0.4463369   0.1041822  -0.01769032 )
    ( -0.3975063   0.08854996 -0.02769516 )
    ( -0.3474257   0.07387222 -0.0407758  )
    ( -0.2986289   0.05932353 -0.05333998 )
    ( -0.2325402   0.04786225 -0.06763224 )
    ( -0.1575774   0.03179323 -0.07722159 )
    ( -0.06711326  0.01800678 -0.08544967 )
    (  0.04946157  0.01071452 -0.09344676 )
    (  0.1866545   0.01001646 -0.1002487  )
    (  0.3191126   0.00971742 -0.1054468  )
    (  0.4629448   0.00971839 -0.1112439  )
    (  0.5994758   0.01031452 -0.1155419  )
    (  0.7237971   0.01101549 -0.11857    )
    (  0.8481884   0.01171549 -0.1218758  )
    (  0.9745855   0.01271549 -0.124771   )
    (  1.092845    0.01361742 -0.1256077  )
    (  1.217109    0.01472033 -0.1260068  )
    (  1.327114    0.01582614 -0.1263145  )
    (  1.38946     0.01734937 -0.1263748  )
    (  1.382687    0.02236098 -0.1255661  )
    (  1.395082    0.03135808 -0.1236719  )
    (  1.408091    0.03736195 -0.1216039  )
    (  1.390976    0.04653872 -0.1205068  )
    (  1.366414    0.0631816  -0.1210184  )
    (  1.332989    0.07618839 -0.1218203  )
    (  1.325714    0.08849806 -0.1231184  )
    (  1.311561    0.1016     -0.1250165  )
    (  1.291605    0.1126     -0.1256135  )
    (  1.276503    0.1211     -0.1273077  )
    (  1.263237    0.1292     -0.1285213  )
    (  1.182226    0.3560016  -0.1542     )
    (  1.167342    0.4798162  -0.1693     )
    (  1.182042    0.5969     -0.1843     )
    (  1.31079     0.7011     -0.1993     )
    (  1.378935    0.8042     -0.2142     )
    (  1.409858    0.9        -0.2291     )
    (  1.342187    0.9852     -0.2439     )
    (  1.2627      1.0628     -0.2586     )
    (  1.0454      1.1163     -0.2733     )
    (  0.8994095   1.1832     -0.2845     )
    (  0.7314579   1.2349     -0.2939     )
    (  0.5557677   1.2715     -0.303      )
    (  0.417       1.2931     -0.3132     )
    (  0.3         1.3        -0.3148     )
    (  0.1600968   1.2931     -0.325      )
    (  0.02313775  1.2729     -0.3305     )
    ( -0.101971    1.24       -0.3317     )
    ( -0.2359032   1.1947     -0.3302     )
    ( -0.3519903   1.1371     -0.3275     )
    ( -0.4649419   1.0678     -0.325      )
    ( -0.5919322   0.9875     -0.324      )
    ( -0.6651      0.899      -0.3242     )
    ( -0.716       0.8054     -0.3231     )
    ( -0.7525      0.7103     -0.32       )
    ( -0.7801      0.6175     -0.3145     )
    ( -0.805       0.5312     -0.306      )
    ( -0.8281      0.4516     -0.298      )
    ( -0.8283      0.3619     -0.2889     )
    ( -0.779       0.2414     -0.28       )
    ( -0.6553      0.1094     -0.2543     )
    ( -0.44        0.0250484  -0.1563     )
    ( -0.022       0.02001936  0.         )
);



// ************************************************************************* // 

