/*---*- C++ -*-
 *
 * Greenwich OpenFOAM CFD Simulation Package
 *
 * Generated by GWpy v0.1.0.dev-8c9f512
 * Timestamp: 2015-11-25T15:41:15.819574+00:00
 *
 * 
 */

FoamFile             
{ 
    version              2.0 ;
    format               ascii ;
    class                dictionary ;
    object               "30.613_" ;
}

// * * * * * * * * * * * * * * * * * * * * * * * * * * * * * * * * * * * * * // 

aoa                  
( -180. -175. -170. -165. -160. -155. -150. -145. -140. -135. -130.
  -125. -120. -115. -110. -105. -100.  -95.  -90.  -85.  -80.  -75.
   -70.  -65.  -60.  -55.  -50.  -45.  -40.  -35.  -30.  -25.  -20.
   -15.  -14.  -13.  -12.  -11.  -10.   -9.   -8.   -7.   -6.   -5.
    -4.   -3.   -2.   -1.    0.    1.    2.    3.    4.    5.    6.
     7.    8.    9.   10.   11.   12.   13.   14.   15.   16.   17.
    18.   19.   20.   25.   30.   35.   40.   45.   50.   55.   60.
    65.   70.   75.   80.   85.   90.   95.  100.  105.  110.  115.
   120.  125.  130.  135.  140.  145.  150.  155.  160.  165.  170.
   175.  180. );

polars               
(
    ( -0.022       0.0202452   0.         )
    (  0.539       0.025613    0.1066     )
    (  0.7822      0.1092      0.1671     )
    (  0.789       0.2414      0.2195     )
    (  0.7879      0.362       0.2495     )
    (  0.8051      0.4517      0.2686     )
    (  0.816       0.5313      0.2793     )
    (  0.8018      0.6176      0.2888     )
    (  0.7661      0.7104      0.2999     )
    (  0.718       0.8056      0.3055     )
    (  0.6649      0.8992      0.3122     )
    (  0.606       0.9877      0.3159     )
    (  0.5382644   1.068       0.3198     )
    (  0.4067548   1.1375      0.322      )
    (  0.298       1.1951      0.3212     )
    (  0.1934904   1.240512    0.3212     )
    (  0.0838774   1.2734      0.3197     )
    ( -0.02143988  1.2933      0.3145     )
    ( -0.1292644   1.3         0.3079     )
    ( -0.2363678   1.2933      0.301      )
    ( -0.3365746   1.2733      0.2935     )
    ( -0.4810458   1.240312    0.2827     )
    ( -0.6343294   1.1948      0.2713     )
    ( -0.7529424   1.1372      0.2574     )
    ( -0.8559808   1.068       0.2453     )
    ( -0.9474      0.9878      0.2289     )
    ( -0.9919      0.8972      0.2116     )
    ( -1.0181      0.7969      0.1941     )
    ( -1.0193      0.6879      0.171      )
    ( -0.9892      0.5707      0.1379     )
    ( -0.921       0.4463      0.0993     )
    ( -0.8323607   0.317       0.0624     )
    ( -0.8         0.1916      0.0328     )
    ( -0.7843072   0.1379778   0.01319498 )
    ( -0.7907518   0.1307959   0.00740148 )
    ( -0.7782998   0.1243694   0.00525052 )
    ( -0.7663189   0.1185074   0.00291566 )
    ( -0.7509704   0.1100648  -0.00203722 )
    ( -0.4857629   0.1150032  -0.0084161  )
    ( -0.4386019   0.1016415  -0.0175774  )
    ( -0.3917474   0.0867997  -0.0276387  )
    ( -0.3418926   0.07238168 -0.0404935  )
    ( -0.2919666   0.05843146 -0.05263988 )
    ( -0.2271765   0.04742186 -0.0668418  )
    ( -0.1549802   0.03171418 -0.07630694 )
    ( -0.06843442  0.01808582 -0.08486248 )
    (  0.04784682  0.0108839  -0.0928257  )
    (  0.1861238   0.01020842 -0.09965022 )
    (  0.3192594   0.00992068 -0.1048257  )
    (  0.4623012   0.00993294 -0.1105889  )
    (  0.5991935   0.0104839  -0.1148644  )
    (  0.7237632   0.01119616 -0.1182199  )
    (  0.8480529   0.01189616 -0.1215935  )
    (  0.9744161   0.01289616 -0.1244322  )
    (  1.092201    0.01382068 -0.1256981  )
    (  1.212547    0.01495746 -0.1260858  )
    (  1.316782    0.01613102 -0.1264839  )
    (  1.377333    0.01792526 -0.1260812  )
    (  1.372039    0.02307238 -0.1251709  )
    (  1.383203    0.0320356  -0.1233445  )
    (  1.392824    0.03808464 -0.121649   )
    (  1.375528    0.0469904  -0.1205858  )
    (  1.353744    0.06296705 -0.1212329  )
    (  1.322363    0.07605288 -0.1220575  )
    (  1.314207    0.08847548 -0.1233329  )
    (  1.300608    0.1016     -0.1252084  )
    (  1.28116     0.1126     -0.1257716  )
    (  1.264872    0.1211     -0.1273981  )
    (  1.248501    0.1292     -0.1287697  )
    (  1.173192    0.3571873  -0.1542     )
    (  1.159663    0.4811712  -0.1693     )
    (  1.170863    0.5969     -0.1843     )
    (  1.296675    0.7011     -0.1993     )
    (  1.366514    0.8042     -0.2142     )
    (  1.396533    0.9        -0.2291     )
    (  1.332702    0.9852     -0.2439     )
    (  1.259199    1.0628     -0.2586     )
    (  1.0454      1.1163     -0.2733     )
    (  0.8925214   1.1832     -0.2845     )
    (  0.7251344   1.2349     -0.2939     )
    (  0.5530576   1.2715     -0.303      )
    (  0.417       1.2931     -0.3132     )
    (  0.3         1.3        -0.3148     )
    (  0.161226    1.2931     -0.325      )
    (  0.02357814  1.2729     -0.3305     )
    ( -0.1016322   1.24       -0.3317     )
    ( -0.234774    1.1947     -0.3302     )
    ( -0.3518774   1.1371     -0.3275     )
    ( -0.4642644   1.0678     -0.325      )
    ( -0.5911418   0.9875     -0.324      )
    ( -0.6651      0.899      -0.3242     )
    ( -0.716       0.8054     -0.3231     )
    ( -0.7525      0.7103     -0.32       )
    ( -0.7801      0.6175     -0.3145     )
    ( -0.805       0.5312     -0.306      )
    ( -0.8281      0.4516     -0.298      )
    ( -0.8283      0.3619     -0.2889     )
    ( -0.779       0.2414     -0.28       )
    ( -0.6553      0.1094     -0.2543     )
    ( -0.44        0.025613   -0.1563     )
    ( -0.022       0.0202452   0.         )
);



// ************************************************************************* // 

