/*---*- C++ -*-
 *
 * Greenwich OpenFOAM CFD Simulation Package
 *
 * Generated by GWpy v0.1.0.dev-8c9f512
 * Timestamp: 2015-11-25T15:41:15.838519+00:00
 *
 * 
 */

FoamFile             
{ 
    version              2.0 ;
    format               ascii ;
    class                dictionary ;
    object               "31.8151_" ;
}

// * * * * * * * * * * * * * * * * * * * * * * * * * * * * * * * * * * * * * // 

aoa                  
( -180. -175. -170. -165. -160. -155. -150. -145. -140. -135. -130.
  -125. -120. -115. -110. -105. -100.  -95.  -90.  -85.  -80.  -75.
   -70.  -65.  -60.  -55.  -50.  -45.  -40.  -35.  -30.  -25.  -20.
   -15.  -14.  -13.  -12.  -11.  -10.   -9.   -8.   -7.   -6.   -5.
    -4.   -3.   -2.   -1.    0.    1.    2.    3.    4.    5.    6.
     7.    8.    9.   10.   11.   12.   13.   14.   15.   16.   17.
    18.   19.   20.   25.   30.   35.   40.   45.   50.   55.   60.
    65.   70.   75.   80.   85.   90.   95.  100.  105.  110.  115.
   120.  125.  130.  135.  140.  145.  150.  155.  160.  165.  170.
   175.  180. );

polars               
(
    (  -2.20000000e-02   2.07260400e-02   0.00000000e+00 )
    (   5.39000000e-01   2.68151000e-02   1.06600000e-01 )
    (   7.82200000e-01   1.09200000e-01   1.67100000e-01 )
    (   7.89000000e-01   2.41400000e-01   2.19500000e-01 )
    (   7.87900000e-01   3.62000000e-01   2.49500000e-01 )
    (   8.05100000e-01   4.51700000e-01   2.68600000e-01 )
    (   8.16000000e-01   5.31300000e-01   2.79300000e-01 )
    (   8.01800000e-01   6.17600000e-01   2.88800000e-01 )
    (   7.66100000e-01   7.10400000e-01   2.99900000e-01 )
    (   7.18000000e-01   8.05600000e-01   3.05500000e-01 )
    (   6.64900000e-01   8.99200000e-01   3.12200000e-01 )
    (   6.06000000e-01   9.87700000e-01   3.15900000e-01 )
    (   5.36821800e-01   1.06800000e+00   3.19800000e-01 )
    (   4.06274000e-01   1.13750000e+00   3.22000000e-01 )
    (   2.98000000e-01   1.19510000e+00   3.21200000e-01 )
    (   1.94452100e-01   1.24053600e+00   3.21200000e-01 )
    (   8.36369800e-02   1.27340000e+00   3.19700000e-01 )
    (  -1.99492800e-02   1.29330000e+00   3.14500000e-01 )
    (  -1.27821900e-01   1.30000000e+00   3.07900000e-01 )
    (  -2.37089100e-01   1.29330000e+00   3.01000000e-01 )
    (  -3.41623400e-01   1.27330000e+00   2.93500000e-01 )
    (  -4.88979700e-01   1.24033600e+00   2.82700000e-01 )
    (  -6.38897400e-01   1.19480000e+00   2.71300000e-01 )
    (  -7.58712500e-01   1.13720000e+00   2.57400000e-01 )
    (  -8.57904100e-01   1.06800000e+00   2.45300000e-01 )
    (  -9.47400000e-01   9.87800000e-01   2.28900000e-01 )
    (  -9.91900000e-01   8.97200000e-01   2.11600000e-01 )
    (  -1.01810000e+00   7.96900000e-01   1.94100000e-01 )
    (  -1.01930000e+00   6.87900000e-01   1.71000000e-01 )
    (  -9.89200000e-01   5.70700000e-01   1.37900000e-01 )
    (  -9.21000000e-01   4.46300000e-01   9.93000000e-02 )
    (  -8.41304300e-01   3.17000000e-01   6.24000000e-02 )
    (  -8.00000000e-01   1.91600000e-01   3.28000000e-02 )
    (  -7.53533400e-01   1.35189000e-01   1.49500500e-02 )
    (  -7.53005900e-01   1.27454000e-01   9.75759500e-03 )
    (  -7.35745500e-01   1.21171800e-01   7.70280300e-03 )
    (  -7.21841300e-01   1.14011500e-01   5.10348200e-03 )
    (  -7.03848100e-01   1.06073900e-01   4.39105600e-04 )
    (  -4.65687800e-01   1.07165600e-01  -8.05547000e-03 )
    (  -4.22133100e-01   9.62320500e-02  -1.73369800e-02 )
    (  -3.79486000e-01   8.30731900e-02  -2.75184900e-02 )
    (  -3.30112000e-01   6.92081400e-02  -3.98924500e-02 )
    (  -2.77781800e-01   5.65321400e-02  -5.11492800e-02 )
    (  -2.15756600e-01   4.64842200e-02  -6.51588600e-02 )
    (  -1.49450500e-01   3.15458900e-02  -7.43595400e-02 )
    (  -7.12473300e-02   1.82541100e-02  -8.36123000e-02 )
    (   4.44088200e-02   1.12445300e-02  -9.15033900e-02 )
    (   1.84993800e-01   1.06171300e-02  -9.83759900e-02 )
    (   3.19571900e-01   1.03534400e-02  -1.03503400e-01 )
    (   4.60930800e-01   1.03897400e-02  -1.09194500e-01 )
    (   5.98592500e-01   1.08445300e-02  -1.13421900e-01 )
    (   7.23691100e-01   1.15808300e-02  -1.17474600e-01 )
    (   8.47764400e-01   1.22808300e-02  -1.20992500e-01 )
    (   9.74055500e-01   1.32808300e-02  -1.23710900e-01 )
    (   1.09083100e+00   1.42534400e-02  -1.25890400e-01 )
    (   1.20283400e+00   1.54623400e-02  -1.26254100e-01 )
    (   1.29478400e+00   1.67801500e-02  -1.26844500e-01 )
    (   1.35151200e+00   1.91514000e-02  -1.25456100e-01 )
    (   1.34936700e+00   2.45870300e-02  -1.24329400e-01 )
    (   1.35791000e+00   3.34781200e-02  -1.22647200e-01 )
    (   1.36032000e+00   3.96233300e-02  -1.21745200e-01 )
    (   1.34263900e+00   4.79520800e-02  -1.20754100e-01 )
    (   1.32676900e+00   6.25102600e-02  -1.21689700e-01 )
    (   1.29974000e+00   7.57643800e-02  -1.22562300e-01 )
    (   1.28970800e+00   8.84273900e-02  -1.23789700e-01 )
    (   1.27728700e+00   1.01600000e-01  -1.25617100e-01 )
    (   1.25892100e+00   1.12600000e-01  -1.26108200e-01 )
    (   1.24010900e+00   1.21100000e-01  -1.27590400e-01 )
    (   1.21712600e+00   1.29200000e-01  -1.29298600e-01 )
    (   1.15395800e+00   3.59711700e-01  -1.54200000e-01 )
    (   1.14331500e+00   4.84056200e-01  -1.69300000e-01 )
    (   1.14706100e+00   5.96900000e-01  -1.84300000e-01 )
    (   1.26662300e+00   7.01100000e-01  -1.99300000e-01 )
    (   1.34006800e+00   8.04200000e-01  -2.14200000e-01 )
    (   1.36816400e+00   9.00000000e-01  -2.29100000e-01 )
    (   1.31250600e+00   9.85200000e-01  -2.43900000e-01 )
    (   1.25174600e+00   1.06280000e+00  -2.58600000e-01 )
    (   1.04540000e+00   1.11630000e+00  -2.73300000e-01 )
    (   8.77855800e-01   1.18320000e+00  -2.84500000e-01 )
    (   7.11670900e-01   1.23490000e+00  -2.93900000e-01 )
    (   5.47287500e-01   1.27150000e+00  -3.03000000e-01 )
    (   4.17000000e-01   1.29310000e+00  -3.13200000e-01 )
    (   3.00000000e-01   1.30000000e+00  -3.14800000e-01 )
    (   1.63630200e-01   1.29310000e+00  -3.25000000e-01 )
    (   2.45157800e-02   1.27290000e+00  -3.30500000e-01 )
    (  -1.00910900e-01   1.24000000e+00  -3.31700000e-01 )
    (  -2.32369800e-01   1.19470000e+00  -3.30200000e-01 )
    (  -3.51637000e-01   1.13710000e+00  -3.27500000e-01 )
    (  -4.62821900e-01   1.06780000e+00  -3.25000000e-01 )
    (  -5.89458900e-01   9.87500000e-01  -3.24000000e-01 )
    (  -6.65100000e-01   8.99000000e-01  -3.24200000e-01 )
    (  -7.16000000e-01   8.05400000e-01  -3.23100000e-01 )
    (  -7.52500000e-01   7.10300000e-01  -3.20000000e-01 )
    (  -7.80100000e-01   6.17500000e-01  -3.14500000e-01 )
    (  -8.05000000e-01   5.31200000e-01  -3.06000000e-01 )
    (  -8.28100000e-01   4.51600000e-01  -2.98000000e-01 )
    (  -8.28300000e-01   3.61900000e-01  -2.88900000e-01 )
    (  -7.79000000e-01   2.41400000e-01  -2.80000000e-01 )
    (  -6.55300000e-01   1.09400000e-01  -2.54300000e-01 )
    (  -4.40000000e-01   2.68151000e-02  -1.56300000e-01 )
    (  -2.20000000e-02   2.07260400e-02   0.00000000e+00 )
);



// ************************************************************************* // 

