/*---*- C++ -*-
 *
 * Greenwich OpenFOAM CFD Simulation Package
 *
 * Generated by GWpy v0.1.0.dev-8c9f512
 * Timestamp: 2015-11-25T15:41:15.847264+00:00
 *
 * 
 */

FoamFile             
{ 
    version              2.0 ;
    format               ascii ;
    class                dictionary ;
    object               "32.4425_" ;
}

// * * * * * * * * * * * * * * * * * * * * * * * * * * * * * * * * * * * * * // 

aoa                  
( -180. -175. -170. -165. -160. -155. -150. -145. -140. -135. -130.
  -125. -120. -115. -110. -105. -100.  -95.  -90.  -85.  -80.  -75.
   -70.  -65.  -60.  -55.  -50.  -45.  -40.  -35.  -30.  -25.  -20.
   -15.  -14.  -13.  -12.  -11.  -10.   -9.   -8.   -7.   -6.   -5.
    -4.   -3.   -2.   -1.    0.    1.    2.    3.    4.    5.    6.
     7.    8.    9.   10.   11.   12.   13.   14.   15.   16.   17.
    18.   19.   20.   25.   30.   35.   40.   45.   50.   55.   60.
    65.   70.   75.   80.   85.   90.   95.  100.  105.  110.  115.
   120.  125.  130.  135.  140.  145.  150.  155.  160.  165.  170.
   175.  180. );

polars               
(
    ( -0.022       0.020977    0.         )
    (  0.539       0.0274425   0.1066     )
    (  0.7822      0.1092      0.1671     )
    (  0.789       0.2414      0.2195     )
    (  0.7879      0.362       0.2495     )
    (  0.8051      0.4517      0.2686     )
    (  0.816       0.5313      0.2793     )
    (  0.8018      0.6176      0.2888     )
    (  0.7661      0.7104      0.2999     )
    (  0.718       0.8056      0.3055     )
    (  0.6649      0.8992      0.3122     )
    (  0.606       0.9877      0.3159     )
    (  0.536069    1.068       0.3198     )
    (  0.406023    1.1375      0.322      )
    (  0.298       1.1951      0.3212     )
    (  0.194954    1.240549    0.3212     )
    (  0.08351149  1.2734      0.3197     )
    ( -0.0191713   1.2933      0.3145     )
    ( -0.127069    1.3         0.3079     )
    ( -0.2374655   1.2933      0.301      )
    ( -0.3442585   1.2733      0.2935     )
    ( -0.4931205   1.240349    0.2827     )
    ( -0.6412815   1.1948      0.2713     )
    ( -0.761724    1.1372      0.2574     )
    ( -0.858908    1.068       0.2453     )
    ( -0.9474      0.9878      0.2289     )
    ( -0.9919      0.8972      0.2116     )
    ( -1.0181      0.7969      0.1941     )
    ( -1.0193      0.6879      0.171      )
    ( -0.9892      0.5707      0.1379     )
    ( -0.921       0.4463      0.0993     )
    ( -0.8459722   0.317       0.0624     )
    ( -0.8         0.1916      0.0328     )
    ( -0.737472    0.1337334   0.01586605 )
    ( -0.7333055   0.1257098   0.0109873  )
    ( -0.7135355   0.1195029   0.0089827  )
    ( -0.6986274   0.111665    0.00624535 )
    ( -0.6792539   0.1039909   0.00173155 )
    ( -0.4552102   0.1030749  -0.00786725 )
    ( -0.4135377   0.09340875 -0.0172115  )
    ( -0.3730865   0.08112825 -0.02745575 )
    ( -0.3239635   0.0675518  -0.03957875 )
    ( -0.2703785   0.05554085 -0.0503713  )
    ( -0.2097962   0.04599485 -0.0642805  )
    ( -0.1465645   0.03145805 -0.07334315 )
    ( -0.07271545  0.01834195 -0.0829598  )
    (  0.04261445  0.01143275 -0.09081325 )
    (  0.184404    0.01083045 -0.09771094 )
    (  0.3197351   0.0105793  -0.1028133  )
    (  0.4602155   0.01062815 -0.1084667  )
    (  0.5982788   0.01103275 -0.112669   )
    (  0.7236534   0.0117816  -0.1170857  )
    (  0.8476138   0.0124816  -0.1206788  )
    (  0.9738672   0.0134816  -0.1233345  )
    (  1.090116    0.0144793  -0.1259908  )
    (  1.197765    0.01572585 -0.126342   )
    (  1.283302    0.01711895 -0.1270328  )
    (  1.338035    0.01979135 -0.1251299  )
    (  1.337534    0.02537755 -0.1238903  )
    (  1.34471     0.034231   -0.1222834  )
    (  1.343355    0.0404264  -0.1217954  )
    (  1.325473    0.048454   -0.120842   )
    (  1.31269     0.06227185 -0.1219281  )
    (  1.287932    0.0756138  -0.1228258  )
    (  1.276922    0.0884023  -0.1240281  )
    (  1.265115    0.1016     -0.1258305  )
    (  1.247314    0.1126     -0.1262839  )
    (  1.227185    0.1211     -0.1276908  )
    (  1.200751    0.1292     -0.1295747  )
    (  1.14392     0.3610292  -0.1542     )
    (  1.134782    0.485562   -0.1693     )
    (  1.134638    0.5969     -0.1843     )
    (  1.250937    0.7011     -0.1993     )
    (  1.326265    0.8042     -0.2142     )
    (  1.353357    0.9        -0.2291     )
    (  1.301966    0.9852     -0.2439     )
    (  1.247856    1.0628     -0.2586     )
    (  1.0454      1.1163     -0.2733     )
    (  0.8702015   1.1832     -0.2845     )
    (  0.704644    1.2349     -0.2939     )
    (  0.544276    1.2715     -0.303      )
    (  0.417       1.2931     -0.3132     )
    (  0.3         1.3        -0.3148     )
    (  0.164885    1.2931     -0.325      )
    (  0.02500515  1.2729     -0.3305     )
    ( -0.1005345   1.24       -0.3317     )
    ( -0.231115    1.1947     -0.3302     )
    ( -0.3515115   1.1371     -0.3275     )
    ( -0.462069    1.0678     -0.325      )
    ( -0.5885805   0.9875     -0.324      )
    ( -0.6651      0.899      -0.3242     )
    ( -0.716       0.8054     -0.3231     )
    ( -0.7525      0.7103     -0.32       )
    ( -0.7801      0.6175     -0.3145     )
    ( -0.805       0.5312     -0.306      )
    ( -0.8281      0.4516     -0.298      )
    ( -0.8283      0.3619     -0.2889     )
    ( -0.779       0.2414     -0.28       )
    ( -0.6553      0.1094     -0.2543     )
    ( -0.44        0.0274425  -0.1563     )
    ( -0.022       0.020977    0.         )
);



// ************************************************************************* // 

