/*---*- C++ -*-
 *
 * Greenwich OpenFOAM CFD Simulation Package
 *
 * Generated by GWpy v0.1.0.dev-8c9f512
 * Timestamp: 2015-11-25T15:41:15.859092+00:00
 *
 * 
 */

FoamFile             
{ 
    version              2.0 ;
    format               ascii ;
    class                dictionary ;
    object               "33.1458_" ;
}

// * * * * * * * * * * * * * * * * * * * * * * * * * * * * * * * * * * * * * // 

aoa                  
( -180. -175. -170. -165. -160. -155. -150. -145. -140. -135. -130.
  -125. -120. -115. -110. -105. -100.  -95.  -90.  -85.  -80.  -75.
   -70.  -65.  -60.  -55.  -50.  -45.  -40.  -35.  -30.  -25.  -20.
   -15.  -14.  -13.  -12.  -11.  -10.   -9.   -8.   -7.   -6.   -5.
    -4.   -3.   -2.   -1.    0.    1.    2.    3.    4.    5.    6.
     7.    8.    9.   10.   11.   12.   13.   14.   15.   16.   17.
    18.   19.   20.   25.   30.   35.   40.   45.   50.   55.   60.
    65.   70.   75.   80.   85.   90.   95.  100.  105.  110.  115.
   120.  125.  130.  135.  140.  145.  150.  155.  160.  165.  170.
   175.  180. );

polars               
(
    ( -0.022       0.02125832  0.         )
    (  0.539       0.0281458   0.1066     )
    (  0.7822      0.1092      0.1671     )
    (  0.789       0.2414      0.2195     )
    (  0.7879      0.362       0.2495     )
    (  0.8051      0.4517      0.2686     )
    (  0.816       0.5313      0.2793     )
    (  0.8018      0.6176      0.2888     )
    (  0.7661      0.7104      0.2999     )
    (  0.718       0.8056      0.3055     )
    (  0.6649      0.8992      0.3122     )
    (  0.606       0.9877      0.3159     )
    (  0.535225    1.068       0.3198     )
    (  0.4057417   1.1375      0.322      )
    (  0.298       1.1951      0.3212     )
    (  0.1955166   1.240563    0.3212     )
    (  0.08337083  1.2734      0.3197     )
    ( -0.01829921  1.2933      0.3145     )
    ( -0.126225    1.3         0.3079     )
    ( -0.2378875   1.2933      0.301      )
    ( -0.3472123   1.2733      0.2935     )
    ( -0.4977623   1.240363    0.2827     )
    ( -0.6439541   1.1948      0.2713     )
    ( -0.7650998   1.1372      0.2574     )
    ( -0.8600333   1.068       0.2453     )
    ( -0.9474      0.9878      0.2289     )
    ( -0.9919      0.8972      0.2116     )
    ( -1.0181      0.7969      0.1941     )
    ( -1.0193      0.6879      0.171      )
    ( -0.9892      0.5707      0.1379     )
    ( -0.921       0.4463      0.0993     )
    ( -0.8512048   0.317       0.0624     )
    ( -0.8         0.1916      0.0328     )
    ( -0.7194675   0.1321017   0.01689287 )
    ( -0.7112218   0.1237547   0.01236577 )
    ( -0.6886386   0.1176322   0.01041744 )
    ( -0.6726053   0.1090347   0.00752536 )
    ( -0.6516846   0.1016559   0.00318035 )
    ( -0.4434651   0.09848937 -0.00765626 )
    ( -0.4039025   0.09024389 -0.01707084 )
    ( -0.3659128   0.07894801 -0.02738542 )
    ( -0.3170711   0.06569508 -0.0392271  )
    ( -0.2620795   0.05442964 -0.04949921 )
    ( -0.2031149   0.04544627 -0.06329588 )
    ( -0.1433293   0.03135959 -0.0722038  )
    ( -0.07436118  0.01844041 -0.08222837 )
    (  0.04060301  0.01164374 -0.09003962 )
    (  0.1837429   0.01106957 -0.09696545 )
    (  0.3199179   0.01083249 -0.1020396  )
    (  0.4594138   0.0108954  -0.1076509  )
    (  0.5979271   0.01124374 -0.111825   )
    (  0.7236112   0.01200666 -0.1166496  )
    (  0.847445    0.01270666 -0.1203271  )
    (  0.9736563   0.01370666 -0.1229125  )
    (  1.089314    0.01473249 -0.1261033  )
    (  1.192082    0.01602124 -0.1264404  )
    (  1.270432    0.01749873 -0.1272437  )
    (  1.322928    0.02050872 -0.1247642  )
    (  1.32427     0.02626371 -0.1233979  )
    (  1.329912    0.03507496 -0.1218754  )
    (  1.324337    0.04132663 -0.1218517  )
    (  1.306231    0.04901664 -0.1209404  )
    (  1.296908    0.06200459 -0.1221954  )
    (  1.274696    0.07544501 -0.1231212  )
    (  1.262589    0.08837417 -0.1242954  )
    (  1.251471    0.1016     -0.1260696  )
    (  1.234303    0.1126     -0.1264808  )
    (  1.212697    0.1211     -0.1278033  )
    (  1.182395    0.1292     -0.1298842  )
    (  1.132667    0.3625062  -0.1542     )
    (  1.125217    0.4872499  -0.1693     )
    (  1.120713    0.5969     -0.1843     )
    (  1.233355    0.7011     -0.1993     )
    (  1.310792    0.8042     -0.2142     )
    (  1.336759    0.9        -0.2291     )
    (  1.290151    0.9852     -0.2439     )
    (  1.243496    1.0628     -0.2586     )
    (  1.0454      1.1163     -0.2733     )
    (  0.8616212   1.1832     -0.2845     )
    (  0.696767    1.2349     -0.2939     )
    (  0.5409002   1.2715     -0.303      )
    (  0.417       1.2931     -0.3132     )
    (  0.3         1.3        -0.3148     )
    (  0.1662916   1.2931     -0.325      )
    (  0.02555373  1.2729     -0.3305     )
    ( -0.1001125   1.24       -0.3317     )
    ( -0.2297084   1.1947     -0.3302     )
    ( -0.3513708   1.1371     -0.3275     )
    ( -0.461225    1.0678     -0.325      )
    ( -0.5875959   0.9875     -0.324      )
    ( -0.6651      0.899      -0.3242     )
    ( -0.716       0.8054     -0.3231     )
    ( -0.7525      0.7103     -0.32       )
    ( -0.7801      0.6175     -0.3145     )
    ( -0.805       0.5312     -0.306      )
    ( -0.8281      0.4516     -0.298      )
    ( -0.8283      0.3619     -0.2889     )
    ( -0.779       0.2414     -0.28       )
    ( -0.6553      0.1094     -0.2543     )
    ( -0.44        0.0281458  -0.1563     )
    ( -0.022       0.02125832  0.         )
);



// ************************************************************************* // 

