/*---*- C++ -*-
 *
 * Greenwich OpenFOAM CFD Simulation Package
 *
 * Generated by GWpy v0.1.0.dev-8c9f512
 * Timestamp: 2015-11-25T15:41:15.869877+00:00
 *
 * 
 */

FoamFile             
{ 
    version              2.0 ;
    format               ascii ;
    class                dictionary ;
    object               "33.9291_" ;
}

// * * * * * * * * * * * * * * * * * * * * * * * * * * * * * * * * * * * * * // 

aoa                  
( -180. -175. -170. -165. -160. -155. -150. -145. -140. -135. -130.
  -125. -120. -115. -110. -105. -100.  -95.  -90.  -85.  -80.  -75.
   -70.  -65.  -60.  -55.  -50.  -45.  -40.  -35.  -30.  -25.  -20.
   -15.  -14.  -13.  -12.  -11.  -10.   -9.   -8.   -7.   -6.   -5.
    -4.   -3.   -2.   -1.    0.    1.    2.    3.    4.    5.    6.
     7.    8.    9.   10.   11.   12.   13.   14.   15.   16.   17.
    18.   19.   20.   25.   30.   35.   40.   45.   50.   55.   60.
    65.   70.   75.   80.   85.   90.   95.  100.  105.  110.  115.
   120.  125.  130.  135.  140.  145.  150.  155.  160.  165.  170.
   175.  180. );

polars               
(
    ( -0.022       0.02157164  0.         )
    (  0.539       0.0289291   0.1066     )
    (  0.7822      0.1092      0.1671     )
    (  0.789       0.2414      0.2195     )
    (  0.7879      0.362       0.2495     )
    (  0.8051      0.4517      0.2686     )
    (  0.816       0.5313      0.2793     )
    (  0.8018      0.6176      0.2888     )
    (  0.7661      0.7104      0.2999     )
    (  0.718       0.8056      0.3055     )
    (  0.6649      0.8992      0.3122     )
    (  0.606       0.9877      0.3159     )
    (  0.5342851   1.068       0.3198     )
    (  0.4054283   1.1375      0.322      )
    (  0.298       1.1951      0.3212     )
    (  0.1961433   1.240579    0.3212     )
    (  0.08321418  1.2734      0.3197     )
    ( -0.01732792  1.2933      0.3145     )
    ( -0.1252851   1.3         0.3079     )
    ( -0.2383575   1.2933      0.301      )
    ( -0.3505022   1.2733      0.2935     )
    ( -0.5029321   1.240379    0.2827     )
    ( -0.6469306   1.1948      0.2713     )
    ( -0.7688597   1.1372      0.2574     )
    ( -0.8612865   1.068       0.2453     )
    ( -0.9474      0.9878      0.2289     )
    ( -0.9919      0.8972      0.2116     )
    ( -1.0181      0.7969      0.1941     )
    ( -1.0193      0.6879      0.171      )
    ( -0.9892      0.5707      0.1379     )
    ( -0.921       0.4463      0.0993     )
    ( -0.8570325   0.317       0.0624     )
    ( -0.8         0.1916      0.0328     )
    ( -0.699415    0.1302845   0.01803649 )
    ( -0.6866263   0.1215771   0.01390104 )
    ( -0.6609099   0.1155486   0.01201536 )
    ( -0.6436233   0.1061052   0.00895096 )
    ( -0.6209792   0.09905539  0.00479395 )
    ( -0.430384    0.09338227 -0.00742127 )
    ( -0.3931713   0.08671905 -0.01691418 )
    ( -0.3579232   0.07651979 -0.02730709 )
    ( -0.3093948   0.06362718 -0.03883545 )
    ( -0.2528366   0.05319202 -0.04852792 )
    ( -0.1956736   0.0448353  -0.06219926 )
    ( -0.1397261   0.03124993 -0.07093486 )
    ( -0.07619409  0.01855007 -0.08141374 )
    (  0.03836277  0.01187873 -0.08917799 )
    (  0.1830066   0.01133589 -0.09613515 )
    (  0.3201216   0.01111448 -0.101178   )
    (  0.4585208   0.01119306 -0.1067422  )
    (  0.5975354   0.01147873 -0.1108851  )
    (  0.7235643   0.01225731 -0.116164   )
    (  0.847257    0.01295731 -0.1199355  )
    (  0.9734213   0.01395731 -0.1224425  )
    (  1.088421    0.01501448 -0.1262286  )
    (  1.185753    0.01635022 -0.1265501  )
    (  1.256097    0.01792171 -0.1274787  )
    (  1.306103    0.02130768 -0.1243569  )
    (  1.309497    0.02725067 -0.1228496  )
    (  1.313432    0.03601492 -0.1214211  )
    (  1.303157    0.04232925 -0.1219143  )
    (  1.2848      0.04964328 -0.1210501  )
    (  1.279331    0.06170694 -0.1224931  )
    (  1.259954    0.07525702 -0.1234502  )
    (  1.246625    0.08834283 -0.1245931  )
    (  1.236275    0.1016     -0.1263359  )
    (  1.219812    0.1126     -0.1267001  )
    (  1.196561    0.1211     -0.1279286  )
    (  1.16195     0.1292     -0.1302288  )
    (  1.120134    0.3641511  -0.1542     )
    (  1.114564    0.4891298  -0.1693     )
    (  1.105204    0.5969     -0.1843     )
    (  1.213773    0.7011     -0.1993     )
    (  1.29356     0.8042     -0.2142     )
    (  1.318273    0.9        -0.2291     )
    (  1.276991    0.9852     -0.2439     )
    (  1.23864     1.0628     -0.2586     )
    (  1.0454      1.1163     -0.2733     )
    (  0.852065    1.1832     -0.2845     )
    (  0.6879941   1.2349     -0.2939     )
    (  0.5371403   1.2715     -0.303      )
    (  0.417       1.2931     -0.3132     )
    (  0.3         1.3        -0.3148     )
    (  0.1678582   1.2931     -0.325      )
    (  0.0261647   1.2729     -0.3305     )
    ( -0.09964254  1.24       -0.3317     )
    ( -0.2281418   1.1947     -0.3302     )
    ( -0.3512142   1.1371     -0.3275     )
    ( -0.4602851   1.0678     -0.325      )
    ( -0.5864993   0.9875     -0.324      )
    ( -0.6651      0.899      -0.3242     )
    ( -0.716       0.8054     -0.3231     )
    ( -0.7525      0.7103     -0.32       )
    ( -0.7801      0.6175     -0.3145     )
    ( -0.805       0.5312     -0.306      )
    ( -0.8281      0.4516     -0.298      )
    ( -0.8283      0.3619     -0.2889     )
    ( -0.779       0.2414     -0.28       )
    ( -0.6553      0.1094     -0.2543     )
    ( -0.44        0.0289291  -0.1563     )
    ( -0.022       0.02157164  0.         )
);



// ************************************************************************* // 

