/*---*- C++ -*-
 *
 * Greenwich OpenFOAM CFD Simulation Package
 *
 * Generated by GWpy v0.1.0.dev-8c9f512
 * Timestamp: 2015-11-25T15:41:15.879635+00:00
 *
 * 
 */

FoamFile             
{ 
    version              2.0 ;
    format               ascii ;
    class                dictionary ;
    object               "34.8068_" ;
}

// * * * * * * * * * * * * * * * * * * * * * * * * * * * * * * * * * * * * * // 

aoa                  
( -180. -175. -170. -165. -160. -155. -150. -145. -140. -135. -130.
  -125. -120. -115. -110. -105. -100.  -95.  -90.  -85.  -80.  -75.
   -70.  -65.  -60.  -55.  -50.  -45.  -40.  -35.  -30.  -25.  -20.
   -15.  -14.  -13.  -12.  -11.  -10.   -9.   -8.   -7.   -6.   -5.
    -4.   -3.   -2.   -1.    0.    1.    2.    3.    4.    5.    6.
     7.    8.    9.   10.   11.   12.   13.   14.   15.   16.   17.
    18.   19.   20.   25.   30.   35.   40.   45.   50.   55.   60.
    65.   70.   75.   80.   85.   90.   95.  100.  105.  110.  115.
   120.  125.  130.  135.  140.  145.  150.  155.  160.  165.  170.
   175.  180. );

polars               
(
    ( -0.022       0.02192272  0.         )
    (  0.539       0.0298068   0.1066     )
    (  0.7822      0.1092      0.1671     )
    (  0.789       0.2414      0.2195     )
    (  0.7879      0.362       0.2495     )
    (  0.8051      0.4517      0.2686     )
    (  0.816       0.5313      0.2793     )
    (  0.8018      0.6176      0.2888     )
    (  0.7661      0.7104      0.2999     )
    (  0.718       0.8056      0.3055     )
    (  0.6649      0.8992      0.3122     )
    (  0.606       0.9877      0.3159     )
    (  0.5332319   1.068       0.3198     )
    (  0.4050773   1.1375      0.322      )
    (  0.298       1.1951      0.3212     )
    (  0.1968454   1.240596    0.3212     )
    (  0.08303864  1.2734      0.3197     )
    ( -0.01623957  1.2933      0.3145     )
    ( -0.1242318   1.3         0.3079     )
    ( -0.2388841   1.2933      0.301      )
    ( -0.3541886   1.2733      0.2935     )
    ( -0.5087249   1.240396    0.2827     )
    ( -0.6502659   1.1948      0.2713     )
    ( -0.7730727   1.1372      0.2574     )
    ( -0.8626909   1.068       0.2453     )
    ( -0.9474      0.9878      0.2289     )
    ( -0.9919      0.8972      0.2116     )
    ( -1.0181      0.7969      0.1941     )
    ( -1.0193      0.6879      0.171      )
    ( -0.9892      0.5707      0.1379     )
    ( -0.921       0.4463      0.0993     )
    ( -0.8635626   0.317       0.0624     )
    ( -0.8         0.1916      0.0328     )
    ( -0.6769459   0.1282482   0.01931793 )
    ( -0.6590664   0.1191371   0.01562133 )
    ( -0.6298393   0.1132139   0.01380587 )
    ( -0.6111484   0.1028226   0.01054838 )
    ( -0.5865734   0.09614142  0.00660201 )
    ( -0.4157264   0.08765966 -0.00715796 )
    ( -0.3811468   0.08276939 -0.01673864 )
    ( -0.3489707   0.07379892 -0.02721932 )
    ( -0.3007933   0.06131005 -0.0383966  )
    ( -0.2424797   0.05180525 -0.04743957 )
    ( -0.1873354   0.0441507  -0.06097048 )
    ( -0.1356887   0.03112705 -0.06951299 )
    ( -0.07824791  0.01867295 -0.08050093 )
    (  0.03585255  0.01214204 -0.08821252 )
    (  0.1821816   0.01163431 -0.09520479 )
    (  0.3203498   0.01143045 -0.1002125  )
    (  0.4575202   0.01152658 -0.1057241  )
    (  0.5970966   0.01174204 -0.1098318  )
    (  0.7235116   0.01253818 -0.1156198  )
    (  0.8470464   0.01323818 -0.1194966  )
    (  0.9731579   0.01423818 -0.1219159  )
    (  1.08742     0.01533045 -0.1263691  )
    (  1.178661    0.01671886 -0.126673   )
    (  1.240036    0.01839567 -0.127742   )
    (  1.28725     0.02220294 -0.1239005  )
    (  1.292944    0.02835657 -0.1222352  )
    (  1.294965    0.03706816 -0.1209121  )
    (  1.279424    0.0434527  -0.1219845  )
    (  1.260786    0.05034544 -0.121173   )
    (  1.259635    0.06137341 -0.1228266  )
    (  1.243436    0.07504637 -0.1238189  )
    (  1.228737    0.08830772 -0.1249266  )
    (  1.219248    0.1016     -0.1266343  )
    (  1.203574    0.1126     -0.1269459  )
    (  1.17848     0.1211     -0.1280691  )
    (  1.139042    0.1292     -0.130615   )
    (  1.106091    0.3659943  -0.1542     )
    (  1.102628    0.4912363  -0.1693     )
    (  1.087825    0.5969     -0.1843     )
    (  1.19183     0.7011     -0.1993     )
    (  1.27425     0.8042     -0.2142     )
    (  1.297559    0.9        -0.2291     )
    (  1.262246    0.9852     -0.2439     )
    (  1.233198    1.0628     -0.2586     )
    (  1.0454      1.1163     -0.2733     )
    (  0.841357    1.1832     -0.2845     )
    (  0.6781638   1.2349     -0.2939     )
    (  0.5329273   1.2715     -0.303      )
    (  0.417       1.2931     -0.3132     )
    (  0.3         1.3        -0.3148     )
    (  0.1696136   1.2931     -0.325      )
    (  0.02684931  1.2729     -0.3305     )
    ( -0.09911592  1.24       -0.3317     )
    ( -0.2263864   1.1947     -0.3302     )
    ( -0.3510387   1.1371     -0.3275     )
    ( -0.4592318   1.0678     -0.325      )
    ( -0.5852705   0.9875     -0.324      )
    ( -0.6651      0.899      -0.3242     )
    ( -0.716       0.8054     -0.3231     )
    ( -0.7525      0.7103     -0.32       )
    ( -0.7801      0.6175     -0.3145     )
    ( -0.805       0.5312     -0.306      )
    ( -0.8281      0.4516     -0.298      )
    ( -0.8283      0.3619     -0.2889     )
    ( -0.779       0.2414     -0.28       )
    ( -0.6553      0.1094     -0.2543     )
    ( -0.44        0.0298068  -0.1563     )
    ( -0.022       0.02192272  0.         )
);



// ************************************************************************* // 

