/*---*- C++ -*-
 *
 * Greenwich OpenFOAM CFD Simulation Package
 *
 * Generated by GWpy v0.1.0.dev-8c9f512
 * Timestamp: 2015-11-25T15:41:15.891161+00:00
 *
 * 
 */

FoamFile             
{ 
    version              2.0 ;
    format               ascii ;
    class                dictionary ;
    object               "35.7827_" ;
}

// * * * * * * * * * * * * * * * * * * * * * * * * * * * * * * * * * * * * * // 

aoa                  
( -180. -175. -170. -165. -160. -155. -150. -145. -140. -135. -130.
  -125. -120. -115. -110. -105. -100.  -95.  -90.  -85.  -80.  -75.
   -70.  -65.  -60.  -55.  -50.  -45.  -40.  -35.  -30.  -25.  -20.
   -15.  -14.  -13.  -12.  -11.  -10.   -9.   -8.   -7.   -6.   -5.
    -4.   -3.   -2.   -1.    0.    1.    2.    3.    4.    5.    6.
     7.    8.    9.   10.   11.   12.   13.   14.   15.   16.   17.
    18.   19.   20.   25.   30.   35.   40.   45.   50.   55.   60.
    65.   70.   75.   80.   85.   90.   95.  100.  105.  110.  115.
   120.  125.  130.  135.  140.  145.  150.  155.  160.  165.  170.
   175.  180. );

polars               
(
    ( -0.022       0.022       0.         )
    (  0.539       0.03        0.1066     )
    (  0.7822      0.1092      0.1671     )
    (  0.789       0.2414      0.2195     )
    (  0.7879      0.362       0.2495     )
    (  0.8051      0.4517      0.2686     )
    (  0.816       0.5313      0.2792844  )
    (  0.8018      0.6176      0.2888     )
    (  0.7661      0.7104      0.2999     )
    (  0.718       0.8056      0.3055     )
    (  0.6649      0.8992      0.3122     )
    (  0.606       0.9877      0.3159     )
    (  0.5339392   1.068       0.3198     )
    (  0.4137819   1.1375      0.322      )
    (  0.3091457   1.1951      0.3212     )
    (  0.2068933   1.2406      0.3212     )
    (  0.09048261  1.2734      0.3196844  )
    ( -0.01697055  1.2933      0.3145     )
    ( -0.1353491   1.3         0.3079     )
    ( -0.2593502   1.2933      0.301      )
    ( -0.3802969   1.2733      0.2935     )
    ( -0.5333558   1.2404      0.2827     )
    ( -0.6668262   1.1948      0.2713     )
    ( -0.7823436   1.1372      0.2574     )
    ( -0.8673831   1.068       0.2453     )
    ( -0.9474      0.9878      0.2289     )
    ( -0.9919      0.8972      0.2116     )
    ( -1.0181      0.7969      0.1940843  )
    ( -1.0193      0.6879      0.171      )
    ( -0.9892      0.5707      0.1379     )
    ( -0.921       0.4463      0.0993     )
    ( -0.8591767   0.317       0.0624     )
    ( -0.8         0.1916      0.03278435 )
    ( -0.6649557   0.127033    0.02057055 )
    ( -0.6495561   0.1171911   0.01684532 )
    ( -0.623       0.1107119   0.01470093 )
    ( -0.6069742   0.0999554   0.01129135 )
    ( -0.5829135   0.09244747  0.007      )
    ( -0.4390335   0.08275262 -0.00630165 )
    ( -0.4025289   0.0781587  -0.01596426 )
    ( -0.3689156   0.06958393 -0.02669907 )
    ( -0.3164481   0.05735612 -0.03825304 )
    ( -0.2520657   0.04805612 -0.04748177 )
    ( -0.1923095   0.04108836 -0.06199928 )
    ( -0.1363967   0.02962852 -0.07010794 )
    ( -0.07420731  0.01877827 -0.08119228 )
    (  0.04323658  0.01310793 -0.08846962 )
    (  0.187792    0.01263924 -0.09531308 )
    (  0.3229986   0.01247055 -0.1        )
    (  0.4592881   0.01253924 -0.1054217  )
    (  0.5985654   0.01281751 -0.109193   )
    (  0.7237348   0.01377405 -0.1152652  )
    (  0.8462173   0.01459928 -0.1190243  )
    (  0.9679185   0.01577147 -0.1214869  )
    (  1.080594    0.01707498 -0.1257112  )
    (  1.167848    0.01869413 -0.1259643  )
    (  1.225464    0.02051936 -0.1270486  )
    (  1.266804    0.0249516  -0.1234556  )
    (  1.267494    0.03199692 -0.1219591  )
    (  1.265713    0.04169877 -0.1208157  )
    (  1.249748    0.05032164 -0.1223131  )
    (  1.234602    0.06213092 -0.1218888  )
    (  1.235842    0.07621825 -0.1236984  )
    (  1.220733    0.0936126  -0.1248549  )
    (  1.206203    0.110466   -0.1260958  )
    (  1.198359    0.1243296  -0.1279993  )
    (  1.184659    0.1368793  -0.1282523  )
    (  1.163777    0.1457237  -0.1291801  )
    (  1.129617    0.1546847  -0.1318427  )
    (  1.103       0.3664     -0.1542     )
    (  1.1         0.4917     -0.1693     )
    (  1.084       0.5969     -0.1843     )
    (  1.187       0.7011     -0.1993     )
    (  1.27        0.8042     -0.2142     )
    (  1.293       0.9        -0.2291     )
    (  1.259       0.9852     -0.2439     )
    (  1.232       1.0628     -0.2586     )
    (  1.0454      1.1163     -0.2733     )
    (  0.8570803   1.1832     -0.2845     )
    (  0.7024866   1.2349     -0.2939     )
    (  0.5616487   1.2715     -0.303      )
    (  0.4402618   1.2931     -0.3132     )
    (  0.3133998   1.3        -0.3148     )
    (  0.1745083   1.2931     -0.325      )
    (  0.02638949  1.2729     -0.3304844  )
    ( -0.1049172   1.24       -0.3317     )
    ( -0.2344218   1.1947     -0.3302     )
    ( -0.3594532   1.1371     -0.3275     )
    ( -0.4671401   1.0678     -0.325      )
    ( -0.5869254   0.9875     -0.324      )
    ( -0.6651      0.899      -0.3242     )
    ( -0.716       0.8054     -0.3231     )
    ( -0.7525      0.7103     -0.32       )
    ( -0.7801      0.6175     -0.3145     )
    ( -0.805       0.5312     -0.306      )
    ( -0.8281      0.4516     -0.298      )
    ( -0.8283      0.3619     -0.2889     )
    ( -0.779       0.2414     -0.28       )
    ( -0.6553      0.1094     -0.2543     )
    ( -0.44        0.03       -0.1563     )
    ( -0.022       0.022       0.         )
);



// ************************************************************************* // 

