/*---*- C++ -*-
 *
 * Greenwich OpenFOAM CFD Simulation Package
 *
 * Generated by GWpy v0.1.0.dev-8c9f512
 * Timestamp: 2015-11-25T15:41:15.900341+00:00
 *
 * 
 */

FoamFile             
{ 
    version              2.0 ;
    format               ascii ;
    class                dictionary ;
    object               "36.8498_" ;
}

// * * * * * * * * * * * * * * * * * * * * * * * * * * * * * * * * * * * * * // 

aoa                  
( -180. -175. -170. -165. -160. -155. -150. -145. -140. -135. -130.
  -125. -120. -115. -110. -105. -100.  -95.  -90.  -85.  -80.  -75.
   -70.  -65.  -60.  -55.  -50.  -45.  -40.  -35.  -30.  -25.  -20.
   -15.  -14.  -13.  -12.  -11.  -10.   -9.   -8.   -7.   -6.   -5.
    -4.   -3.   -2.   -1.    0.    1.    2.    3.    4.    5.    6.
     7.    8.    9.   10.   11.   12.   13.   14.   15.   16.   17.
    18.   19.   20.   25.   30.   35.   40.   45.   50.   55.   60.
    65.   70.   75.   80.   85.   90.   95.  100.  105.  110.  115.
   120.  125.  130.  135.  140.  145.  150.  155.  160.  165.  170.
   175.  180. );

polars               
(
    ( -0.022       0.022       0.         )
    (  0.539       0.03        0.1066     )
    (  0.7822      0.1092      0.1671     )
    (  0.789       0.2414      0.2195     )
    (  0.7879      0.362       0.2495     )
    (  0.8051      0.4517      0.2686     )
    (  0.816       0.5313      0.279263   )
    (  0.8018      0.6176      0.2888     )
    (  0.7661      0.7104      0.2999     )
    (  0.718       0.8056      0.3055     )
    (  0.6649      0.8992      0.3122     )
    (  0.606       0.9877      0.3159     )
    (  0.5352197   1.068       0.3198     )
    (  0.4257548   1.1375      0.322      )
    (  0.3243411   1.1951      0.3212     )
    (  0.2203815   1.2406      0.3212     )
    (  0.1006841   1.2734      0.319663   )
    ( -0.01829375  1.2933      0.3145     )
    ( -0.1508221   1.3         0.3079     )
    ( -0.2870948   1.2933      0.301      )
    ( -0.4147855   1.2733      0.2935     )
    ( -0.5651981   1.2404      0.2827     )
    ( -0.688403    1.1948      0.2713     )
    ( -0.7937189   1.1372      0.2574     )
    ( -0.8733588   1.068       0.2453     )
    ( -0.9474      0.9878      0.2289     )
    ( -0.9919      0.8972      0.2116     )
    ( -1.0181      0.7969      0.194063   )
    ( -1.0193      0.6879      0.171      )
    ( -0.9892      0.5707      0.1379     )
    ( -0.921       0.4463      0.0993     )
    ( -0.8512375   0.317       0.0624     )
    ( -0.8         0.1916      0.032763   )
    ( -0.6553518   0.1259872   0.02189375 )
    ( -0.6448609   0.1152704   0.01799778 )
    ( -0.623       0.1080015   0.01538387 )
    ( -0.6110292   0.09703155  0.0118249  )
    ( -0.588249    0.08828578  0.007      )
    ( -0.4752082   0.07777993 -0.0052132  )
    ( -0.4352889   0.07305796 -0.01496119 )
    ( -0.3987944   0.06465393 -0.02601613 )
    ( -0.3403725   0.05266088 -0.03818901 )
    ( -0.268243    0.04336088 -0.04786593 )
    ( -0.2015933   0.03711874 -0.06377067 )
    ( -0.1385736   0.02762238 -0.07134577 )
    ( -0.06808215  0.01888498 -0.08240878 )
    (  0.05405697  0.01434577 -0.08910988 )
    (  0.1956885   0.01391976 -0.09573992 )
    (  0.3265413   0.01379375 -0.1        )
    (  0.4619985   0.01381976 -0.105315   )
    (  0.6006996   0.01420474 -0.1086381  )
    (  0.7240549   0.0153747  -0.1149451  )
    (  0.8451502   0.01637067 -0.1185121  )
    (  0.9608544   0.01777762 -0.1210601  )
    (  1.071588    0.01935857 -0.1247722  )
    (  1.155235    0.02127651 -0.1249612  )
    (  1.210418    0.02327248 -0.1260242  )
    (  1.244587    0.02843035 -0.1229861  )
    (  1.237765    0.03662813 -0.121767   )
    (  1.231373    0.04769588 -0.120837   )
    (  1.216412    0.05934931 -0.1227399  )
    (  1.20611     0.07798803 -0.1228278  )
    (  1.209314    0.09655719 -0.1247868  )
    (  1.194739    0.1189882  -0.1261567  )
    (  1.180849    0.1406863  -0.1275897  )
    (  1.174989    0.1553182  -0.1297707  )
    (  1.163744    0.1699808  -0.1299597  )
    (  1.149158    0.1792947  -0.1306527  )
    (  1.123641    0.1894295  -0.1334007  )
    (  1.103       0.3664     -0.1542     )
    (  1.1         0.4917     -0.1693     )
    (  1.084       0.5969     -0.1843     )
    (  1.187       0.7011     -0.1993     )
    (  1.27        0.8042     -0.2142     )
    (  1.293       0.9        -0.2291     )
    (  1.259       0.9852     -0.2439     )
    (  1.232       1.0628     -0.2586     )
    (  1.0454      1.1163     -0.2733     )
    (  0.8817304   1.1832     -0.2845     )
    (  0.7385972   1.2349     -0.2939     )
    (  0.6020705   1.2715     -0.303      )
    (  0.471976    1.2931     -0.3132     )
    (  0.3316686   1.3        -0.3148     )
    (  0.1806549   1.2931     -0.325      )
    (  0.02555716  1.2729     -0.330463   )
    ( -0.1129845   1.24       -0.3317     )
    ( -0.2459038   1.1947     -0.3302     )
    ( -0.3709778   1.1371     -0.3275     )
    ( -0.4782379   1.0678     -0.325      )
    ( -0.5895505   0.9875     -0.324      )
    ( -0.6651      0.899      -0.3242     )
    ( -0.716       0.8054     -0.3231     )
    ( -0.7525      0.7103     -0.32       )
    ( -0.7801      0.6175     -0.3145     )
    ( -0.805       0.5312     -0.306      )
    ( -0.8281      0.4516     -0.298      )
    ( -0.8283      0.3619     -0.2889     )
    ( -0.779       0.2414     -0.28       )
    ( -0.6553      0.1094     -0.2543     )
    ( -0.44        0.03       -0.1563     )
    ( -0.022       0.022       0.         )
);



// ************************************************************************* // 

