/*---*- C++ -*-
 *
 * Greenwich OpenFOAM CFD Simulation Package
 *
 * Generated by GWpy v0.1.0.dev-8c9f512
 * Timestamp: 2015-11-25T15:41:15.911441+00:00
 *
 * 
 */

FoamFile             
{ 
    version              2.0 ;
    format               ascii ;
    class                dictionary ;
    object               "37.9589_" ;
}

// * * * * * * * * * * * * * * * * * * * * * * * * * * * * * * * * * * * * * // 

aoa                  
( -180. -175. -170. -165. -160. -155. -150. -145. -140. -135. -130.
  -125. -120. -115. -110. -105. -100.  -95.  -90.  -85.  -80.  -75.
   -70.  -65.  -60.  -55.  -50.  -45.  -40.  -35.  -30.  -25.  -20.
   -15.  -14.  -13.  -12.  -11.  -10.   -9.   -8.   -7.   -6.   -5.
    -4.   -3.   -2.   -1.    0.    1.    2.    3.    4.    5.    6.
     7.    8.    9.   10.   11.   12.   13.   14.   15.   16.   17.
    18.   19.   20.   25.   30.   35.   40.   45.   50.   55.   60.
    65.   70.   75.   80.   85.   90.   95.  100.  105.  110.  115.
   120.  125.  130.  135.  140.  145.  150.  155.  160.  165.  170.
   175.  180. );

polars               
(
    ( -0.022       0.022       0.         )
    (  0.539       0.03        0.1066     )
    (  0.7822      0.1092      0.1671     )
    (  0.789       0.2414      0.2195     )
    (  0.7879      0.362       0.2495     )
    (  0.8051      0.4517      0.2686     )
    (  0.816       0.5313      0.2792408  )
    (  0.8018      0.6176      0.2888     )
    (  0.7661      0.7104      0.2999     )
    (  0.718       0.8056      0.3055     )
    (  0.6649      0.8992      0.3122     )
    (  0.606       0.9877      0.3159     )
    (  0.5365506   1.068       0.3198     )
    (  0.4381989   1.1375      0.322      )
    (  0.3401347   1.1951      0.3212     )
    (  0.2344005   1.2406      0.3212     )
    (  0.1112871   1.2734      0.3196408  )
    ( -0.01966904  1.2933      0.3145     )
    ( -0.1669041   1.3         0.3079     )
    ( -0.3159314   1.2933      0.301      )
    ( -0.4506317   1.2733      0.2935     )
    ( -0.5982936   1.2404      0.2827     )
    ( -0.710829    1.1948      0.2713     )
    ( -0.8055419   1.1372      0.2574     )
    ( -0.8795698   1.068       0.2453     )
    ( -0.9474      0.9878      0.2289     )
    ( -0.9919      0.8972      0.2116     )
    ( -1.0181      0.7969      0.1940408  )
    ( -1.0193      0.6879      0.171      )
    ( -0.9892      0.5707      0.1379     )
    ( -0.921       0.4463      0.0993     )
    ( -0.8429857   0.317       0.0624     )
    ( -0.8         0.1916      0.03274082 )
    ( -0.6453699   0.1249003   0.02326904 )
    ( -0.6399809   0.113274    0.01919561 )
    ( -0.623       0.1051844   0.0160937  )
    ( -0.6152439   0.09399261  0.01237945 )
    ( -0.5937945   0.08396029  0.007      )
    ( -0.5128067   0.07261153 -0.00408192 )
    ( -0.4693382   0.06775645 -0.01391863 )
    ( -0.4298492   0.05952988 -0.0253063  )
    ( -0.3652385   0.04778084 -0.03812246 )
    ( -0.2850569   0.03848084 -0.0482652  )
    ( -0.2112424   0.03299289 -0.06561177 )
    ( -0.1408361   0.02553727 -0.07263233 )
    ( -0.06171591  0.01899589 -0.08367315 )
    (  0.06530325  0.01563232 -0.08977534 )
    (  0.2038959   0.01525068 -0.09618356 )
    (  0.3302236   0.01516904 -0.1        )
    (  0.4648156   0.01515068 -0.1052041  )
    (  0.6029178   0.01564657 -0.1080614  )
    (  0.7243877   0.01703835 -0.1146123  )
    (  0.8440411   0.01821177 -0.1179797  )
    (  0.9535121   0.01986273 -0.1206164  )
    (  1.062227    0.02173205 -0.1237962  )
    (  1.142126    0.02396054 -0.1239186  )
    (  1.19478     0.02613396 -0.1249595  )
    (  1.221496    0.03204602 -0.1224981  )
    (  1.206865    0.04144163 -0.1215674  )
    (  1.195683    0.05392902 -0.1208592  )
    (  1.181764    0.0687323  -0.1231836  )
    (  1.176497    0.09446926 -0.1238038  )
    (  1.181742    0.1176966  -0.1259181  )
    (  1.167721    0.1453626  -0.1275098  )
    (  1.154496    0.1720961  -0.1291425  )
    (  1.1507      0.1875265  -0.1316118  )
    (  1.142006    0.2043851  -0.1317343  )
    (  1.133963    0.214187   -0.1321833  )
    (  1.11743     0.2255418  -0.13502    )
    (  1.103       0.3664     -0.1542     )
    (  1.1         0.4917     -0.1693     )
    (  1.084       0.5969     -0.1843     )
    (  1.187       0.7011     -0.1993     )
    (  1.27        0.8042     -0.2142     )
    (  1.293       0.9        -0.2291     )
    (  1.259       0.9852     -0.2439     )
    (  1.232       1.0628     -0.2586     )
    (  1.0454      1.1163     -0.2733     )
    (  0.9073506   1.1832     -0.2845     )
    (  0.7761292   1.2349     -0.2939     )
    (  0.6440831   1.2715     -0.303      )
    (  0.5049385   1.2931     -0.3132     )
    (  0.3506564   1.3        -0.3148     )
    (  0.1870433   1.2931     -0.325      )
    (  0.02469206  1.2729     -0.3304408  )
    ( -0.1213693   1.24       -0.3317     )
    ( -0.2578378   1.1947     -0.3302     )
    ( -0.3829561   1.1371     -0.3275     )
    ( -0.4897726   1.0678     -0.325      )
    ( -0.5922789   0.9875     -0.324      )
    ( -0.6651      0.899      -0.3242     )
    ( -0.716       0.8054     -0.3231     )
    ( -0.7525      0.7103     -0.32       )
    ( -0.7801      0.6175     -0.3145     )
    ( -0.805       0.5312     -0.306      )
    ( -0.8281      0.4516     -0.298      )
    ( -0.8283      0.3619     -0.2889     )
    ( -0.779       0.2414     -0.28       )
    ( -0.6553      0.1094     -0.2543     )
    ( -0.44        0.03       -0.1563     )
    ( -0.022       0.022       0.         )
);



// ************************************************************************* // 

