/*---*- C++ -*-
 *
 * Greenwich OpenFOAM CFD Simulation Package
 *
 * Generated by GWpy v0.1.0.dev-8c9f512
 * Timestamp: 2015-11-25T15:41:15.920576+00:00
 *
 * 
 */

FoamFile             
{ 
    version              2.0 ;
    format               ascii ;
    class                dictionary ;
    object               "39.41_" ;
}

// * * * * * * * * * * * * * * * * * * * * * * * * * * * * * * * * * * * * * // 

aoa                  
( -180. -175. -170. -165. -160. -155. -150. -145. -140. -135. -130.
  -125. -120. -115. -110. -105. -100.  -95.  -90.  -85.  -80.  -75.
   -70.  -65.  -60.  -55.  -50.  -45.  -40.  -35.  -30.  -25.  -20.
   -15.  -14.  -13.  -12.  -11.  -10.   -9.   -8.   -7.   -6.   -5.
    -4.   -3.   -2.   -1.    0.    1.    2.    3.    4.    5.    6.
     7.    8.    9.   10.   11.   12.   13.   14.   15.   16.   17.
    18.   19.   20.   25.   30.   35.   40.   45.   50.   55.   60.
    65.   70.   75.   80.   85.   90.   95.  100.  105.  110.  115.
   120.  125.  130.  135.  140.  145.  150.  155.  160.  165.  170.
   175.  180. );

polars               
(
    ( -0.022       0.022       0.         )
    (  0.539       0.03        0.1066     )
    (  0.7822      0.1092      0.1671     )
    (  0.789       0.2414      0.2195     )
    (  0.7879      0.362       0.2495     )
    (  0.8051      0.4517      0.2686     )
    (  0.816       0.5313      0.2792118  )
    (  0.8018      0.6176      0.2888     )
    (  0.7661      0.7104      0.2999     )
    (  0.718       0.8056      0.3055     )
    (  0.6649      0.8992      0.3122     )
    (  0.606       0.9877      0.3159     )
    (  0.538292    1.068       0.3198     )
    (  0.4544802   1.1375      0.322      )
    (  0.3607984   1.1951      0.3212     )
    (  0.2527424   1.2406      0.3212     )
    (  0.1251596   1.2734      0.3196118  )
    ( -0.0214684   1.2933      0.3145     )
    ( -0.187945    1.3         0.3079     )
    ( -0.35366     1.2933      0.301      )
    ( -0.4975312   1.2733      0.2935     )
    ( -0.6415944   1.2404      0.2827     )
    ( -0.7401702   1.1948      0.2713     )
    ( -0.8210106   1.1372      0.2574     )
    ( -0.887696    1.068       0.2453     )
    ( -0.9474      0.9878      0.2289     )
    ( -0.9919      0.8972      0.2116     )
    ( -1.0181      0.7969      0.1940118  )
    ( -1.0193      0.6879      0.171      )
    ( -0.9892      0.5707      0.1379     )
    ( -0.921       0.4463      0.0993     )
    ( -0.8321896   0.317       0.0624     )
    ( -0.8         0.1916      0.0327118  )
    ( -0.63231     0.1234782   0.0250684  )
    ( -0.633596    0.110662    0.0207628  )
    ( -0.623       0.1014986   0.0170224  )
    ( -0.620758    0.0900166   0.013105   )
    ( -0.60105     0.078301    0.007      )
    ( -0.561999    0.0658494  -0.0026018  )
    ( -0.513887    0.0608202  -0.0125546  )
    ( -0.47048     0.0528258  -0.0243776  )
    ( -0.3977722   0.041396   -0.0380354  )
    ( -0.3070556   0.032096   -0.0487876  )
    ( -0.223867    0.0275948  -0.0680206  )
    ( -0.1437964   0.0228092  -0.0743156  )
    ( -0.0533866   0.019141   -0.0853274  )
    (  0.0800174   0.0173156  -0.090646   )
    (  0.214634    0.016992   -0.09676401 )
    (  0.3350412   0.0169684  -0.1        )
    (  0.4685014   0.016892   -0.105059   )
    (  0.60582     0.017533   -0.1073068  )
    (  0.724823    0.019215   -0.114177   )
    (  0.84259     0.0206206  -0.1172832  )
    (  0.9439058   0.0225908  -0.120036   )
    (  1.04998     0.0248374  -0.1225192  )
    (  1.124974    0.0274722  -0.1225546  )
    (  1.174319    0.0298778  -0.1235664  )
    (  1.191284    0.0367766  -0.1218596  )
    (  1.166437    0.0477394  -0.1213062  )
    (  1.148986    0.0620842  -0.1208882  )
    (  1.136432    0.0810086  -0.123764   )
    (  1.137753    0.1160326  -0.1250808  )
    (  1.145667    0.1453546  -0.1273982  )
    (  1.132372    0.1798698  -0.1292802  )
    (  1.120018    0.2131912  -0.131174   )
    (  1.118921    0.2296664  -0.1340206  )
    (  1.113564    0.2493982  -0.134056   )
    (  1.114083    0.2598386  -0.1341858  )
    (  1.109304    0.2727896  -0.1371386  )
    (  1.103       0.3664     -0.1542     )
    (  1.1         0.4917     -0.1693     )
    (  1.084       0.5969     -0.1843     )
    (  1.187       0.7011     -0.1993     )
    (  1.27        0.8042     -0.2142     )
    (  1.293       0.9        -0.2291     )
    (  1.259       0.9852     -0.2439     )
    (  1.232       1.0628     -0.2586     )
    (  1.0454      1.1163     -0.2733     )
    (  0.940871    1.1832     -0.2845     )
    (  0.8252344   1.2349     -0.2939     )
    (  0.6990508   1.2715     -0.303      )
    (  0.5480652   1.2931     -0.3132     )
    (  0.3754992   1.3        -0.3148     )
    (  0.1954016   1.2931     -0.325      )
    (  0.0235602   1.2729     -0.3304118  )
    ( -0.1323396   1.24       -0.3317     )
    ( -0.2734516   1.1947     -0.3302     )
    ( -0.398628    1.1371     -0.3275     )
    ( -0.504864    1.0678     -0.325      )
    ( -0.5958486   0.9875     -0.324      )
    ( -0.6651      0.899      -0.3242     )
    ( -0.716       0.8054     -0.3231     )
    ( -0.7525      0.7103     -0.32       )
    ( -0.7801      0.6175     -0.3145     )
    ( -0.805       0.5312     -0.306      )
    ( -0.8281      0.4516     -0.298      )
    ( -0.8283      0.3619     -0.2889     )
    ( -0.779       0.2414     -0.28       )
    ( -0.6553      0.1094     -0.2543     )
    ( -0.44        0.03       -0.1563     )
    ( -0.022       0.022       0.         )
);



// ************************************************************************* // 

