/*---*- C++ -*-
 *
 * Greenwich OpenFOAM CFD Simulation Package
 *
 * Generated by GWpy v0.1.0.dev-8c9f512
 * Timestamp: 2015-11-25T15:41:15.931488+00:00
 *
 * 
 */

FoamFile             
{ 
    version              2.0 ;
    format               ascii ;
    class                dictionary ;
    object               "41.64_" ;
}

// * * * * * * * * * * * * * * * * * * * * * * * * * * * * * * * * * * * * * // 

aoa                  
( -180. -175. -170. -165. -160. -155. -150. -145. -140. -135. -130.
  -125. -120. -115. -110. -105. -100.  -95.  -90.  -85.  -80.  -75.
   -70.  -65.  -60.  -55.  -50.  -45.  -40.  -35.  -30.  -25.  -20.
   -15.  -14.  -13.  -12.  -11.  -10.   -9.   -8.   -7.   -6.   -5.
    -4.   -3.   -2.   -1.    0.    1.    2.    3.    4.    5.    6.
     7.    8.    9.   10.   11.   12.   13.   14.   15.   16.   17.
    18.   19.   20.   25.   30.   35.   40.   45.   50.   55.   60.
    65.   70.   75.   80.   85.   90.   95.  100.  105.  110.  115.
   120.  125.  130.  135.  140.  145.  150.  155.  160.  165.  170.
   175.  180. );

polars               
(
    ( -0.02139867  0.03779866  0.         )
    (  0.5242673   0.04557999  0.1036863  )
    (  0.7608199   0.1226152   0.1625326  )
    (  0.767434    0.2512017   0.2135003  )
    (  0.766364    0.3685053   0.2426803  )
    (  0.783094    0.4557535   0.2612582  )
    (  0.793696    0.5331778   0.2715685  )
    (  0.7798842   0.617119    0.2809061  )
    (  0.7451599   0.7073824   0.2917027  )
    (  0.6983747   0.7999803   0.2971497  )
    (  0.6467261   0.8910219   0.3036665  )
    (  0.589436    0.9771029   0.3072654  )
    (  0.5242673   1.055208    0.3110588  )
    (  0.4484966   1.122808    0.3131987  )
    (  0.3591085   1.178834    0.3124205  )
    (  0.2530878   1.22309     0.3124205  )
    (  0.1272248   1.254994    0.3108643  )
    ( -0.0215932   1.27435     0.3059037  )
    ( -0.191129    1.280867    0.2994841  )
    ( -0.358914    1.27435     0.2927727  )
    ( -0.5024796   1.254897    0.2854777  )
    ( -0.6411819   1.222896    0.2749729  )
    ( -0.7315426   1.178542    0.2638845  )
    ( -0.8046871   1.122517    0.2503644  )
    ( -0.866646    1.055208    0.2385951  )
    ( -0.9215044   0.9772002   0.2226434  )
    ( -0.9647881   0.8890765   0.2058163  )
    ( -0.990272    0.791518    0.1886973  )
    ( -0.9914391   0.6854974   0.166326   )
    ( -0.9621619   0.5715008   0.1341307  )
    ( -0.895826    0.4505011   0.0965858  )
    ( -0.8051735   0.3247353   0.0606944  )
    ( -0.7781333   0.2027629   0.0318062  )
    ( -0.609862    0.1359407   0.0250948  )
    ( -0.6137527   0.1230043   0.02081507 )
    ( -0.6059713   0.1136667   0.0169244  )
    ( -0.6059713   0.1023837   0.01303373 )
    ( -0.5874906   0.09032266  0.00680867 )
    ( -0.566092    0.07777527 -0.00194533 )
    ( -0.5174587   0.07281466 -0.011672   )
    ( -0.4736887   0.06513059 -0.023344   )
    ( -0.399766    0.05413947 -0.03696133 )
    ( -0.3073627   0.04509366 -0.04766067 )
    ( -0.2227407   0.04110573 -0.067114   )
    ( -0.1410367   0.03750686 -0.07295001 )
    ( -0.04863333  0.0350752  -0.08364934 )
    (  0.08364934  0.03390799 -0.08851267 )
    (  0.213014    0.03361619 -0.09434867 )
    (  0.3277887   0.03361619 -0.09726667 )
    (  0.4571534   0.03351893 -0.10213    )
    (  0.5904087   0.0341998  -0.1040753  )
    (  0.7051834   0.03595059 -0.110884   )
    (  0.8189853   0.0374096  -0.113802   )
    (  0.9143067   0.0394522  -0.1165255  )
    (  1.016437    0.0417866  -0.1186653  )
    (  1.087441    0.04451006 -0.1186653  )
    (  1.134129    0.04694173 -0.119638   )
    (  1.146774    0.05404219 -0.1182763  )
    (  1.118567    0.06532513 -0.1178872  )
    (  1.099113    0.0800124  -0.1175954  )
    (  1.087441    0.1000493  -0.1206107  )
    (  1.091332    0.1377888  -0.1221669  )
    (  1.100086    0.1687196  -0.1245013  )
    (  1.087441    0.2050001  -0.1264467  )
    (  1.075769    0.2400161  -0.128392   )
    (  1.075769    0.2564541  -0.13131    )
    (  1.071879    0.2767828  -0.13131    )
    (  1.075769    0.2871904  -0.13131    )
    (  1.075769    0.3004187  -0.134228   )
    (  1.072851    0.3727851  -0.1499852  )
    (  1.069933    0.4946602  -0.1646725  )
    (  1.054371    0.5969847  -0.1792625  )
    (  1.154555    0.6983366  -0.1938525  )
    (  1.235287    0.7986186  -0.2083452  )
    (  1.257658    0.8918     -0.2228379  )
    (  1.224587    0.9746712  -0.2372334  )
    (  1.198325    1.05015    -0.2515316  )
    (  1.016826    1.102188   -0.2658298  )
    (  0.9284104   1.167259   -0.2767237  )
    (  0.8220979   1.217546   -0.2858667  )
    (  0.7016817   1.253146   -0.294718   )
    (  0.5501403   1.274155   -0.3046392  )
    (  0.3750603   1.280867   -0.3061955  )
    (  0.1933661   1.274155   -0.3161167  )
    (  0.0224686   1.254507   -0.3213691  )
    ( -0.1330608   1.222507   -0.3226335  )
    ( -0.2721521   1.178445   -0.3211745  )
    ( -0.39393     1.122419   -0.3185483  )
    ( -0.4970326   1.055014   -0.3161167  )
    ( -0.5809738   0.9769083  -0.315144   )
    ( -0.6469206   0.8908273  -0.3153386  )
    ( -0.6964294   0.7997857  -0.3142686  )
    ( -0.7319317   0.7072852  -0.3112533  )
    ( -0.7587773   0.6170217  -0.3059037  )
    ( -0.7829967   0.5330805  -0.297636   )
    ( -0.8054653   0.4556563  -0.2898547  )
    ( -0.8056598   0.3684081  -0.2810034  )
    ( -0.7577073   0.2512017  -0.2723467  )
    ( -0.6373885   0.1228097  -0.2473491  )
    ( -0.4279733   0.04557999 -0.1520278  )
    ( -0.02139867  0.03779866  0.         )
);



// ************************************************************************* // 

