/*---*- C++ -*-
 *
 * Greenwich OpenFOAM CFD Simulation Package
 *
 * Generated by GWpy v0.1.0.dev-8c9f512
 * Timestamp: 2015-11-25T15:41:15.940836+00:00
 *
 * 
 */

FoamFile             
{ 
    version              2.0 ;
    format               ascii ;
    class                dictionary ;
    object               "44.9454_" ;
}

// * * * * * * * * * * * * * * * * * * * * * * * * * * * * * * * * * * * * * // 

aoa                  
( -180. -175. -170. -165. -160. -155. -150. -145. -140. -135. -130.
  -125. -120. -115. -110. -105. -100.  -95.  -90.  -85.  -80.  -75.
   -70.  -65.  -60.  -55.  -50.  -45.  -40.  -35.  -30.  -25.  -20.
   -15.  -14.  -13.  -12.  -11.  -10.   -9.   -8.   -7.   -6.   -5.
    -4.   -3.   -2.   -1.    0.    1.    2.    3.    4.    5.    6.
     7.    8.    9.   10.   11.   12.   13.   14.   15.   16.   17.
    18.   19.   20.   25.   30.   35.   40.   45.   50.   55.   60.
    65.   70.   75.   80.   85.   90.   95.  100.  105.  110.  115.
   120.  125.  130.  135.  140.  145.  150.  155.  160.  165.  170.
   175.  180. );

polars               
(
    ( -0.02018669  0.06964069  0.         )
    (  0.4945738   0.07698131  0.09781367 )
    (  0.7177284   0.1496534   0.1533271  )
    (  0.723968    0.270957    0.2014081  )
    (  0.7229586   0.3816167   0.2289354  )
    (  0.738741    0.4639234   0.2464611  )
    (  0.7487425   0.5369625   0.2561874  )
    (  0.735713    0.6161494   0.2649961  )
    (  0.7029555   0.7013004   0.2751812  )
    (  0.65882     0.7886537   0.2803197  )
    (  0.6100968   0.874539    0.2864674  )
    (  0.5560515   0.9557444   0.2898625  )
    (  0.4945738   1.029426    0.293441   )
    (  0.4230946   1.093197    0.2954597  )
    (  0.3387693   1.14605     0.2947256  )
    (  0.2387534   1.1878      0.2947256  )
    (  0.120019    1.217896    0.2932575  )
    ( -0.0203702   1.236156    0.2885779  )
    ( -0.1803038   1.242304    0.2825219  )
    ( -0.3385858   1.236156    0.2761906  )
    ( -0.4740201   1.217804    0.2693087  )
    ( -0.6048666   1.187616    0.2593989  )
    ( -0.6901094   1.145775    0.2489385  )
    ( -0.7591112   1.092922    0.2361842  )
    ( -0.8175608   1.029426    0.2250815  )
    ( -0.8693121   0.9558362   0.2100333  )
    ( -0.9101443   0.8727038   0.1941592  )
    ( -0.9341848   0.7806708   0.1780099  )
    ( -0.9352859   0.680655    0.1569056  )
    ( -0.9076668   0.573115    0.1265338  )
    ( -0.8450881   0.4589685   0.09111536 )
    ( -0.7595699   0.3403258   0.05725678 )
    ( -0.7340614   0.2252617   0.03000475 )
    ( -0.5753205   0.1622242   0.02367348 )
    ( -0.5789909   0.1500204   0.01963614 )
    ( -0.5716503   0.1412117   0.01596583 )
    ( -0.5716503   0.1305678   0.01229553 )
    ( -0.5542163   0.1191898   0.00642304 )
    ( -0.5340296   0.1073531  -0.00183515 )
    ( -0.4881508   0.1026735  -0.01101092 )
    ( -0.4468598   0.09542459 -0.02202184 )
    ( -0.377124    0.08505598 -0.03486791 )
    ( -0.2899542   0.07652251 -0.04496126 )
    ( -0.2101251   0.07276045 -0.06331279 )
    ( -0.1330486   0.06936542 -0.06881825 )
    ( -0.04587884  0.06707148 -0.0789116  )
    (  0.0789116   0.06597038 -0.08349948 )
    (  0.2009493   0.06569511 -0.08900494 )
    (  0.3092234   0.06569511 -0.09175767 )
    (  0.431261    0.06560335 -0.09634554 )
    (  0.556969    0.06624566 -0.0981807  )
    (  0.6652431   0.0678973  -0.1046037  )
    (  0.7725996   0.06927366 -0.1073565  )
    (  0.8625221   0.07120057 -0.1099257  )
    (  0.9588675   0.07340275 -0.1119444  )
    (  1.025851    0.07597197 -0.1119444  )
    (  1.069894    0.07826591 -0.1128619  )
    (  1.081823    0.08496422 -0.1115773  )
    (  1.055213    0.09560811 -0.1112103  )
    (  1.036862    0.1094635  -0.110935   )
    (  1.025851    0.1283656  -0.1137795  )
    (  1.029521    0.1639676  -0.1152476  )
    (  1.037779    0.1931465  -0.1174498  )
    (  1.025851    0.2273721  -0.119285   )
    (  1.01484     0.2604049  -0.1211201  )
    (  1.01484     0.2759119  -0.1238729  )
    (  1.011169    0.2950893  -0.1238729  )
    (  1.01484     0.3049074  -0.1238729  )
    (  1.01484     0.3173864  -0.1266256  )
    (  1.012087    0.3856541  -0.1414903  )
    (  1.009334    0.5006264  -0.1553457  )
    (  0.9946531   0.5971555  -0.1691094  )
    (  1.089164    0.692767   -0.182873   )
    (  1.165322    0.7873691  -0.1965449  )
    (  1.186427    0.875273   -0.2102168  )
    (  1.155229    0.9534505  -0.2237969  )
    (  1.130454    1.024655   -0.2372853  )
    (  0.9592347   1.073745   -0.2507737  )
    (  0.875827    1.135131   -0.2610506  )
    (  0.7755358   1.182569   -0.2696758  )
    (  0.6619398   1.216153   -0.2780257  )
    (  0.5189813   1.235972   -0.287385   )
    (  0.3538176   1.242304   -0.2888531  )
    (  0.1824142   1.235972   -0.2982124  )
    (  0.02119602  1.217437   -0.3031673  )
    ( -0.1255245   1.187249   -0.3043602  )
    ( -0.2567379   1.145683   -0.3029838  )
    ( -0.3716185   1.09283    -0.3005064  )
    ( -0.4688817   1.029242   -0.2982124  )
    ( -0.5480685   0.955561   -0.2972948  )
    ( -0.6102802   0.8743554  -0.2974783  )
    ( -0.6569849   0.7884703  -0.296469   )
    ( -0.6904764   0.7012087  -0.2936245  )
    ( -0.7158015   0.6160576  -0.2885779  )
    ( -0.7386492   0.5368707  -0.2807785  )
    ( -0.7598453   0.4638316  -0.2734379  )
    ( -0.7600287   0.381525   -0.2650879  )
    ( -0.7147922   0.270957   -0.2569215  )
    ( -0.601288    0.1498369  -0.2333397  )
    ( -0.4037337   0.07698131 -0.1434172  )
    ( -0.02018669  0.06964069  0.         )
);



// ************************************************************************* // 

