/*---*- C++ -*-
 *
 * Greenwich OpenFOAM CFD Simulation Package
 *
 * Generated by GWpy v0.1.0.dev-8c9f512
 * Timestamp: 2015-11-25T15:41:15.952398+00:00
 *
 * 
 */

FoamFile             
{ 
    version              2.0 ;
    format               ascii ;
    class                dictionary ;
    object               "49.4248_" ;
}

// * * * * * * * * * * * * * * * * * * * * * * * * * * * * * * * * * * * * * // 

aoa                  
( -180. -175. -170. -165. -160. -155. -150. -145. -140. -135. -130.
  -125. -120. -115. -110. -105. -100.  -95.  -90.  -85.  -80.  -75.
   -70.  -65.  -60.  -55.  -50.  -45.  -40.  -35.  -30.  -25.  -20.
   -15.  -14.  -13.  -12.  -11.  -10.   -9.   -8.   -7.   -6.   -5.
    -4.   -3.   -2.   -1.    0.    1.    2.    3.    4.    5.    6.
     7.    8.    9.   10.   11.   12.   13.   14.   15.   16.   17.
    18.   19.   20.   25.   30.   35.   40.   45.   50.   55.   60.
    65.   70.   75.   80.   85.   90.   95.  100.  105.  110.  115.
   120.  125.  130.  135.  140.  145.  150.  155.  160.  165.  170.
   175.  180. );

polars               
(
    ( -0.01854424  0.1127922   0.         )
    (  0.4543338   0.1195356   0.08985527 )
    (  0.659332    0.1862949   0.1408519  )
    (  0.6650639   0.2977289   0.1850209  )
    (  0.6641366   0.399385    0.2103085  )
    (  0.6786349   0.474995    0.2264083  )
    (  0.6878227   0.5420914   0.2353432  )
    (  0.6758533   0.6148354   0.2434353  )
    (  0.645761    0.6930584   0.2527917  )
    (  0.6052166   0.7733043   0.2575121  )
    (  0.5604575   0.8522017   0.2631596  )
    (  0.5108095   0.9268001   0.2662784  )
    (  0.4543338   0.9944865   0.2695658  )
    (  0.3886704   1.05307     0.2714202  )
    (  0.311206    1.101622    0.2707459  )
    (  0.2193278   1.139975    0.2707459  )
    (  0.1102539   1.167622    0.2693972  )
    ( -0.01871282  1.184397    0.2650983  )
    ( -0.1656338   1.190044    0.2595351  )
    ( -0.3110375   1.184397    0.2537189  )
    ( -0.4354525   1.167538    0.247397   )
    ( -0.5556529   1.139806    0.2382935  )
    ( -0.6339601   1.101369    0.2286842  )
    ( -0.6973477   1.052817    0.2169676  )
    ( -0.7510417   0.9944865   0.2067683  )
    ( -0.7985824   0.9268844   0.1929444  )
    ( -0.8360924   0.8505158   0.1783619  )
    ( -0.8581768   0.7659709   0.1635265  )
    ( -0.8591883   0.6740927   0.1441393  )
    ( -0.8338164   0.5753024   0.1162387  )
    ( -0.7763293   0.4704432   0.08370195 )
    ( -0.6977692   0.3614537   0.0525982  )
    ( -0.674336    0.2557515   0.02756348 )
    ( -0.5285108   0.1978429   0.02174734 )
    ( -0.5318825   0.186632    0.01803849 )
    ( -0.5251392   0.17854     0.01466681 )
    ( -0.5251392   0.1687621   0.01129513 )
    ( -0.5091236   0.1583099   0.00590044 )
    ( -0.4905795   0.1474363  -0.00168584 )
    ( -0.4484334   0.1431374  -0.01011504 )
    ( -0.410502    0.1364783  -0.02023008 )
    ( -0.3464401   0.1269533  -0.03203096 )
    ( -0.2663627   0.1191141  -0.04130308 )
    ( -0.1930287   0.1156582  -0.05816147 )
    ( -0.1222234   0.1125394  -0.063219   )
    ( -0.042146    0.1104321  -0.07249112 )
    (  0.07249112  0.1094206  -0.07670572 )
    (  0.1845995   0.1091677  -0.08176324 )
    (  0.2840641   0.1091677  -0.084292   )
    (  0.3961724   0.1090834  -0.08850659 )
    (  0.5116524   0.1096734  -0.09019244 )
    (  0.611117    0.1111907  -0.09609288 )
    (  0.7097386   0.1124551  -0.09862164 )
    (  0.7923448   0.1142252  -0.1009818  )
    (  0.8808514   0.1162482  -0.1028362  )
    (  0.9423846   0.1186084  -0.1028362  )
    (  0.9828447   0.1207157  -0.1036792  )
    (  0.9938027   0.126869   -0.1024991  )
    (  0.969358    0.1366469  -0.1021619  )
    (  0.9524996   0.149375   -0.101909   )
    (  0.9423846   0.1667391  -0.1045221  )
    (  0.9457562   0.1994444  -0.1058707  )
    (  0.9533426   0.2262493  -0.1078938  )
    (  0.9423846   0.2576902  -0.1095796  )
    (  0.9322695   0.2880353  -0.1112654  )
    (  0.9322695   0.3022807  -0.1137942  )
    (  0.9288979   0.3198977  -0.1137942  )
    (  0.9322695   0.3289169  -0.1137942  )
    (  0.9322695   0.3403806  -0.1163229  )
    (  0.9297408   0.4030939  -0.1299783  )
    (  0.927212    0.5087118  -0.1427064  )
    (  0.9137253   0.597387   -0.1553502  )
    (  1.000546    0.6852192  -0.167994   )
    (  1.070508    0.7721243  -0.1805535  )
    (  1.089895    0.8528759  -0.193113   )
    (  1.061236    0.9246927  -0.2055882  )
    (  1.038477    0.9901034  -0.2179791  )
    (  0.8811886   1.0352     -0.23037    )
    (  0.8045671   1.091591   -0.2398107  )
    (  0.712436    1.13517    -0.2477342  )
    (  0.6080825   1.166021   -0.2554048  )
    (  0.4767555   1.184228   -0.2640025  )
    (  0.3250299   1.190044   -0.2653512  )
    (  0.1675725   1.184228   -0.273949   )
    (  0.01947145  1.167201   -0.2785008  )
    ( -0.1153115   1.139469   -0.2795966  )
    ( -0.235849    1.101285   -0.2783322  )
    ( -0.3413826   1.052732   -0.2760563  )
    ( -0.4307321   0.994318   -0.273949   )
    ( -0.5034761   0.9266315  -0.2731061  )
    ( -0.560626    0.8520331  -0.2732747  )
    ( -0.6035307   0.7731358  -0.2723475  )
    ( -0.6342973   0.6929741  -0.2697344  )
    ( -0.6575619   0.6147511  -0.2650983  )
    ( -0.6785506   0.5420071  -0.2579335  )
    ( -0.6980221   0.4749107  -0.2511902  )
    ( -0.6981906   0.3993008  -0.2435196  )
    ( -0.6566346   0.2977289  -0.2360176  )
    ( -0.5523655   0.1864634  -0.2143545  )
    ( -0.3708848   0.1195356  -0.1317484  )
    ( -0.01854424  0.1127922   0.         )
);



// ************************************************************************* // 

