/*---*- C++ -*-
 *
 * Greenwich OpenFOAM CFD Simulation Package
 *
 * Generated by GWpy v0.1.0.dev-8c9f512
 * Timestamp: 2015-11-25T15:41:15.961637+00:00
 *
 * 
 */

FoamFile             
{ 
    version              2.0 ;
    format               ascii ;
    class                dictionary ;
    object               "54.9469_" ;
}

// * * * * * * * * * * * * * * * * * * * * * * * * * * * * * * * * * * * * * // 

aoa                  
( -180. -175. -170. -165. -160. -155. -150. -145. -140. -135. -130.
  -125. -120. -115. -110. -105. -100.  -95.  -90.  -85.  -80.  -75.
   -70.  -65.  -60.  -55.  -50.  -45.  -40.  -35.  -30.  -25.  -20.
   -15.  -14.  -13.  -12.  -11.  -10.   -9.   -8.   -7.   -6.   -5.
    -4.   -3.   -2.   -1.    0.    1.    2.    3.    4.    5.    6.
     7.    8.    9.   10.   11.   12.   13.   14.   15.   16.   17.
    18.   19.   20.   25.   30.   35.   40.   45.   50.   55.   60.
    65.   70.   75.   80.   85.   90.   95.  100.  105.  110.  115.
   120.  125.  130.  135.  140.  145.  150.  155.  160.  165.  170.
   175.  180. );

polars               
(
    ( -0.01651947  0.1659885   0.         )
    (  0.404727    0.1719956   0.08004434 )
    (  0.5873423   0.2314657   0.1254729  )
    (  0.5924482   0.3307326   0.1648193  )
    (  0.5916223   0.4212894   0.1873458  )
    (  0.6045375   0.4886438   0.2016877  )
    (  0.6127222   0.5484142   0.2096471  )
    (  0.6020596   0.6132156   0.2168556  )
    (  0.575253    0.6828977   0.2251904  )
    (  0.5391355   0.754382    0.2293954  )
    (  0.4992635   0.8246648   0.2344263  )
    (  0.4550363   0.8911181   0.2372046  )
    (  0.404727    0.9514142   0.240133   )
    (  0.3462331   1.003601    0.241785   )
    (  0.2772267   1.046852    0.2411843  )
    (  0.1953803   1.081017    0.2411843  )
    (  0.09821576  1.105646    0.2399828  )
    ( -0.01666965  1.120589    0.2361533  )
    ( -0.1475489   1.125619    0.2311975  )
    ( -0.2770765   1.120589    0.2260164  )
    ( -0.3879072   1.105571    0.2203847  )
    ( -0.4949834   1.080867    0.2122752  )
    ( -0.5647406   1.046626    0.2037151  )
    ( -0.6212072   1.003375    0.1932778  )
    ( -0.6690385   0.9514142   0.1841921  )
    ( -0.7113885   0.8911932   0.1718776  )
    ( -0.7448028   0.823163    0.1588873  )
    ( -0.7644761   0.7478492   0.1456717  )
    ( -0.765377    0.6660028   0.1284013  )
    ( -0.7427754   0.5779991   0.103547   )
    ( -0.6915651   0.484589    0.07456288 )
    ( -0.6215826   0.3874995   0.04685522 )
    ( -0.600708    0.2933386   0.02455394 )
    ( -0.4708049   0.2417528   0.01937283 )
    ( -0.4738084   0.231766    0.01606894 )
    ( -0.4678014   0.2245575   0.0130654  )
    ( -0.4678014   0.2158472   0.01006186 )
    ( -0.4535345   0.2065363   0.00525619 )
    ( -0.4370151   0.1968499  -0.00150177 )
    ( -0.3994708   0.1930203  -0.00901062 )
    ( -0.365681    0.1870884  -0.01802124 )
    ( -0.3086137   0.1786034  -0.02853363 )
    ( -0.2372797   0.1716201  -0.03679337 )
    ( -0.1719527   0.1685415  -0.05181106 )
    ( -0.1088783   0.1657632  -0.05631638 )
    ( -0.03754425  0.163886   -0.06457611 )
    (  0.06457611  0.1629849  -0.06833053 )
    (  0.1644438   0.1627597  -0.07283585 )
    (  0.2530482   0.1627597  -0.0750885  )
    (  0.3529159   0.1626846  -0.07884292 )
    (  0.4557872   0.1632102  -0.08034469 )
    (  0.5443916   0.1645618  -0.08560089 )
    (  0.6322452   0.1656881  -0.08785354 )
    (  0.7058319   0.167265   -0.08995603 )
    (  0.7846748   0.1690671  -0.09160797 )
    (  0.8394895   0.1711696  -0.09160797 )
    (  0.8755319   0.1730468  -0.09235886 )
    (  0.8852934   0.1785282  -0.09130762 )
    (  0.8635178   0.1872385  -0.09100726 )
    (  0.8485      0.1985769  -0.09078199 )
    (  0.8394895   0.2140451  -0.09310974 )
    (  0.8424929   0.2431794  -0.09431115 )
    (  0.849251    0.2670576  -0.09611329 )
    (  0.8394895   0.2950656  -0.09761505 )
    (  0.8304788   0.3220975  -0.09911682 )
    (  0.8304788   0.3347874  -0.1013695  )
    (  0.8274753   0.3504809  -0.1013695  )
    (  0.8304788   0.3585154  -0.1013695  )
    (  0.8304788   0.3687274  -0.1036221  )
    (  0.8282262   0.4245933  -0.1157865  )
    (  0.8259735   0.5186791  -0.1271248  )
    (  0.8139594   0.5976722  -0.1383881  )
    (  0.8913006   0.6759145  -0.1496514  )
    (  0.953624    0.7533307  -0.1608396  )
    (  0.9708943   0.8252655  -0.1720278  )
    (  0.9453642   0.8892409  -0.1831409  )
    (  0.9250903   0.9475096  -0.1941789  )
    (  0.7849752   0.9876819  -0.2052169  )
    (  0.7167197   1.037916   -0.2136268  )
    (  0.634648    1.076737   -0.2206851  )
    (  0.5416884   1.104219   -0.2275182  )
    (  0.4247006   1.120438   -0.2351772  )
    (  0.2895412   1.125619   -0.2363786  )
    (  0.1492759   1.120438   -0.2440376  )
    (  0.01734544  1.105271   -0.2480924  )
    ( -0.1027211   1.080566   -0.2490686  )
    ( -0.2100976   1.046551   -0.2479422  )
    ( -0.3041084   1.0033     -0.2459148  )
    ( -0.3837022   0.951264   -0.2440376  )
    ( -0.4485036   0.890968   -0.2432867  )
    ( -0.4994136   0.8245146  -0.2434369  )
    ( -0.5376337   0.7542318  -0.242611   )
    ( -0.5650409   0.6828226  -0.2402832  )
    ( -0.5857654   0.6131405  -0.2361533  )
    ( -0.6044624   0.5483391  -0.2297708  )
    ( -0.6218079   0.4885687  -0.2237637  )
    ( -0.621958    0.4212143  -0.2169307  )
    ( -0.5849394   0.3307326  -0.2102478  )
    ( -0.4920549   0.2316158  -0.1909501  )
    ( -0.3303894   0.1719956  -0.1173633  )
    ( -0.01651947  0.1659885   0.         )
);



// ************************************************************************* // 

