/*---*- C++ -*-
 *
 * Greenwich OpenFOAM CFD Simulation Package
 *
 * Generated by GWpy v0.1.0.dev-8c9f512
 * Timestamp: 2015-11-25T15:41:15.972471+00:00
 *
 * 
 */

FoamFile             
{ 
    version              2.0 ;
    format               ascii ;
    class                dictionary ;
    object               "61.2931_" ;
}

// * * * * * * * * * * * * * * * * * * * * * * * * * * * * * * * * * * * * * // 

aoa                  
( -180. -175. -170. -165. -160. -155. -150. -145. -140. -135. -130.
  -125. -120. -115. -110. -105. -100.  -95.  -90.  -85.  -80.  -75.
   -70.  -65.  -60.  -55.  -50.  -45.  -40.  -35.  -30.  -25.  -20.
   -15.  -14.  -13.  -12.  -11.  -10.   -9.   -8.   -7.   -6.   -5.
    -4.   -3.   -2.   -1.    0.    1.    2.    3.    4.    5.    6.
     7.    8.    9.   10.   11.   12.   13.   14.   15.   16.   17.
    18.   19.   20.   25.   30.   35.   40.   45.   50.   55.   60.
    65.   70.   75.   80.   85.   90.   95.  100.  105.  110.  115.
   120.  125.  130.  135.  140.  145.  150.  155.  160.  165.  170.
   175.  180. );

polars               
(
    ( -0.01419253  0.2271235   0.         )
    (  0.347717    0.2322845   0.06876926 )
    (  0.504609    0.2833776   0.1077987  )
    (  0.5089958   0.3686618   0.1416028  )
    (  0.5082861   0.4464626   0.1609562  )
    (  0.5193821   0.5043294   0.1732779  )
    (  0.5264138   0.5556806   0.1801161  )
    (  0.5172533   0.6113541   0.1863092  )
    (  0.4942226   0.6712207   0.19347    )
    (  0.4631926   0.7326356   0.1970826  )
    (  0.428937    0.7930185   0.2014049  )
    (  0.3909397   0.8501111   0.2037918  )
    (  0.347717    0.9019138   0.2063078  )
    (  0.2974626   0.9467493   0.207727   )
    (  0.2381765   0.9839079   0.207211   )
    (  0.1678589   1.013261    0.207211   )
    (  0.08438104  1.03442     0.2061788  )
    ( -0.01432155  1.047258    0.2028887  )
    ( -0.1267651   1.05158     0.1986309  )
    ( -0.2380474   1.047258    0.1941796  )
    ( -0.3332664   1.034356    0.1893413  )
    ( -0.4252598   1.013132    0.182374   )
    ( -0.485191    0.9837145   0.1750197  )
    ( -0.5337037   0.9465558   0.1660526  )
    ( -0.5747975   0.9019138   0.1582467  )
    ( -0.611182    0.8501756   0.1476668  )
    ( -0.6398896   0.7917282   0.1365063  )
    ( -0.6567916   0.7270231   0.1251523  )
    ( -0.6575657   0.6567056   0.1103147  )
    ( -0.6381478   0.5810981   0.08896136 )
    ( -0.5941509   0.5008458   0.06405992 )
    ( -0.5340262   0.4174325   0.04025517 )
    ( -0.5160921   0.336535    0.02109526 )
    ( -0.4044871   0.2922156   0.01664397 )
    ( -0.4070676   0.2836356   0.01380546 )
    ( -0.4019067   0.2774425   0.011225   )
    ( -0.4019067   0.2699592   0.00864454 )
    ( -0.3896495   0.2619597   0.00451581 )
    ( -0.375457    0.2536378  -0.00129023 )
    ( -0.3432012   0.2503477  -0.00774138 )
    ( -0.314171    0.2452513  -0.01548276 )
    ( -0.2651423   0.2379615  -0.02451437 )
    ( -0.2038563   0.2319619  -0.03161064 )
    ( -0.1477313   0.2293169  -0.04451293 )
    ( -0.09354167  0.22693    -0.04838363 )
    ( -0.03225575  0.2253172  -0.05547989 )
    (  0.05547989  0.2245431  -0.05870547 )
    (  0.1412802   0.2243495  -0.06257616 )
    (  0.2174038   0.2243495  -0.06451151 )
    (  0.3032041   0.224285   -0.06773707 )
    (  0.3915848   0.2247366  -0.0690273  )
    (  0.4677084   0.2258978  -0.07354312 )
    (  0.5431868   0.2268655  -0.07547846 )
    (  0.6064081   0.2282202  -0.07728478 )
    (  0.6741452   0.2297685  -0.07870404 )
    (  0.7212386   0.2315748  -0.07870404 )
    (  0.7522042   0.2331876  -0.07934915 )
    (  0.7605906   0.2378969  -0.07844599 )
    (  0.7418822   0.2453803  -0.07818794 )
    (  0.7289799   0.2551215  -0.07799441 )
    (  0.7212386   0.2684109  -0.07999426 )
    (  0.723819    0.2934414  -0.08102644 )
    (  0.7296251   0.313956   -0.08257473 )
    (  0.7212386   0.3380188  -0.08386495 )
    (  0.7134972   0.3612429  -0.08515518 )
    (  0.7134972   0.3721454  -0.08709053 )
    (  0.7109168   0.3856283  -0.08709053 )
    (  0.7134972   0.392531   -0.08709053 )
    (  0.7134972   0.4013046  -0.08902587 )
    (  0.7115619   0.4493011  -0.09947674 )
    (  0.7096266   0.530134   -0.109218   )
    (  0.6993047   0.5980002  -0.1188947  )
    (  0.7657515   0.6652212  -0.1285714  )
    (  0.8192961   0.7317325  -0.1381836  )
    (  0.8341337   0.7935345  -0.1477959  )
    (  0.8121998   0.8484983  -0.1573436  )
    (  0.7947817   0.8985593  -0.1668268  )
    (  0.6744033   0.9330729  -0.1763099  )
    (  0.6157623   0.9762311  -0.1835352  )
    (  0.5452513   1.009583   -0.1895993  )
    (  0.465386    1.033195   -0.1954699  )
    (  0.364877    1.047129   -0.20205    )
    (  0.2487563   1.05158    -0.2030822  )
    (  0.1282489   1.047129   -0.2096624  )
    (  0.01490216  1.034098   -0.213146   )
    ( -0.08825174  1.012874   -0.2139847  )
    ( -0.1805032   0.9836499  -0.213017   )
    ( -0.2612716   0.9464913  -0.2112752  )
    ( -0.3296537   0.9017848  -0.2096624  )
    ( -0.3853272   0.8499821  -0.2090173  )
    ( -0.429066    0.7928894  -0.2091463  )
    ( -0.4619024   0.7325066  -0.2084367  )
    ( -0.485449    0.6711562  -0.2064368  )
    ( -0.5032542   0.6112895  -0.2028887  )
    ( -0.5193176   0.5556161  -0.1974052  )
    ( -0.5342197   0.504265   -0.1922443  )
    ( -0.5343488   0.4463981  -0.1863737  )
    ( -0.5025446   0.3686618  -0.1806322  )
    ( -0.4227439   0.2835066  -0.1640528  )
    ( -0.2838506   0.2322845  -0.1008315  )
    ( -0.01419253  0.2271235   0.         )
);



// ************************************************************************* // 

