/*---*- C++ -*-
 *
 * Greenwich OpenFOAM CFD Simulation Package
 *
 * Generated by GWpy v0.1.0.dev-8c9f512
 * Timestamp: 2015-11-25T15:41:15.981630+00:00
 *
 * 
 */

FoamFile             
{ 
    version              2.0 ;
    format               ascii ;
    class                dictionary ;
    object               "68.5886_" ;
}

// * * * * * * * * * * * * * * * * * * * * * * * * * * * * * * * * * * * * * // 

aoa                  
( -180. -175. -170. -165. -160. -155. -150. -145. -140. -135. -130.
  -125. -120. -115. -110. -105. -100.  -95.  -90.  -85.  -80.  -75.
   -70.  -65.  -60.  -55.  -50.  -45.  -40.  -35.  -30.  -25.  -20.
   -15.  -14.  -13.  -12.  -11.  -10.   -9.   -8.   -7.   -6.   -5.
    -4.   -3.   -2.   -1.    0.    1.    2.    3.    4.    5.    6.
     7.    8.    9.   10.   11.   12.   13.   14.   15.   16.   17.
    18.   19.   20.   25.   30.   35.   40.   45.   50.   55.   60.
    65.   70.   75.   80.   85.   90.   95.  100.  105.  110.  115.
   120.  125.  130.  135.  140.  145.  150.  155.  160.  165.  170.
   175.  180. );

polars               
(
    ( -0.01151751  0.2974035   0.         )
    (  0.2821791   0.3015917   0.05580759 )
    (  0.4094999   0.3430548   0.08748075 )
    (  0.4130599   0.4122646   0.1149134  )
    (  0.412484    0.4754015   0.1306191  )
    (  0.4214886   0.5223615   0.1406184  )
    (  0.427195    0.564034    0.1461677  )
    (  0.419761    0.609214    0.1511935  )
    (  0.4010712   0.657797    0.1570046  )
    (  0.3758897   0.7076364   0.1599364  )
    (  0.3480907   0.7566382   0.163444   )
    (  0.3172551   0.80297     0.165381   )
    (  0.2821791   0.8450089   0.1674228  )
    (  0.2413966   0.8813938   0.1685745  )
    (  0.1932848   0.9115487   0.1681557  )
    (  0.1362208   0.935369    0.1681557  )
    (  0.06847686  0.9525406   0.167318   )
    ( -0.01162222  0.9629588   0.1646481  )
    ( -0.1028723   0.9664663   0.1611928  )
    ( -0.1931801   0.9629588   0.1575805  )
    ( -0.2704522   0.9524883   0.1536541  )
    ( -0.3451066   0.9352643   0.148      )
    ( -0.3937419   0.9113917   0.1420319  )
    ( -0.4331109   0.8812367   0.1347549  )
    ( -0.4664593   0.8450089   0.1284203  )
    ( -0.495986    0.8030224   0.1198345  )
    ( -0.5192828   0.7555912   0.1107775  )
    ( -0.5329991   0.7030817   0.1015635  )
    ( -0.5336273   0.6460177   0.08952249 )
    ( -0.5178692   0.5846608   0.07219387 )
    ( -0.482165    0.5195345   0.05198587 )
    ( -0.4333726   0.4518429   0.03266785 )
    ( -0.4188187   0.3861931   0.01711921 )
    ( -0.3282491   0.350227    0.0135069  )
    ( -0.3303432   0.3432642   0.0112034  )
    ( -0.326155    0.3382384   0.00910931 )
    ( -0.326155    0.3321655   0.00701521 )
    ( -0.3162081   0.3256738   0.00366466 )
    ( -0.3046906   0.3189204  -0.00104705 )
    ( -0.2785144   0.3162504  -0.00628228 )
    ( -0.2549559   0.3121145  -0.01256456 )
    ( -0.2151681   0.3061987  -0.01989389 )
    ( -0.1654334   0.3013299  -0.02565264 )
    ( -0.1198868   0.2991835  -0.03612311 )
    ( -0.07591088  0.2972465  -0.03926425 )
    ( -0.02617617  0.2959377  -0.04502301 )
    (  0.04502301  0.2953094  -0.04764062 )
    (  0.1146516   0.2951524  -0.05078176 )
    (  0.1764274   0.2951524  -0.05235233 )
    (  0.246056    0.2951     -0.05496995 )
    (  0.3177786   0.2954665  -0.056017   )
    (  0.3795544   0.2964088  -0.05968166 )
    (  0.4408067   0.2971941  -0.06125223 )
    (  0.4921119   0.2982935  -0.06271809 )
    (  0.5470819   0.29955    -0.06386985 )
    (  0.5852991   0.3010158  -0.06386985 )
    (  0.6104282   0.3023246  -0.06439337 )
    (  0.617234    0.3061464  -0.06366044 )
    (  0.6020518   0.3122192  -0.06345103 )
    (  0.5915813   0.3201244  -0.06329396 )
    (  0.5852991   0.330909   -0.06491689 )
    (  0.5873932   0.3512217  -0.06575453 )
    (  0.5921049   0.3678698  -0.06701099 )
    (  0.5852991   0.3873972  -0.06805803 )
    (  0.5790168   0.406244   -0.06910508 )
    (  0.5790168   0.4150916  -0.07067565 )
    (  0.5769227   0.4260332  -0.07067565 )
    (  0.5790168   0.4316349  -0.07067565 )
    (  0.5790168   0.4387548  -0.07224622 )
    (  0.5774463   0.477705   -0.0807273  )
    (  0.5758756   0.5433024  -0.0886325  )
    (  0.5674993   0.5983771  -0.09648535 )
    (  0.6214222   0.6529282  -0.1043382  )
    (  0.6648747   0.7069035  -0.1121387  )
    (  0.6769156   0.757057   -0.1199392  )
    (  0.6591159   0.8016612  -0.1276873  )
    (  0.6449807   0.8422866  -0.1353831  )
    (  0.5472913   0.8702951  -0.1430789  )
    (  0.499703    0.9053189  -0.1489424  )
    (  0.4424819   0.932385   -0.1538635  )
    (  0.3776698   0.951546   -0.1586276  )
    (  0.2961048   0.962854   -0.1639675  )
    (  0.2018706   0.9664663  -0.1648051  )
    (  0.1040764   0.962854   -0.1701451  )
    (  0.01209339  0.9522789  -0.1729721  )
    ( -0.07161799  0.935055   -0.1736527  )
    ( -0.1464818   0.9113393  -0.1728674  )
    ( -0.2120269   0.8811844  -0.1714539  )
    ( -0.2675204   0.8449042  -0.1701451  )
    ( -0.3127005   0.8028653  -0.1696216  )
    ( -0.3481953   0.7565335  -0.1697263  )
    ( -0.3748427   0.7075317  -0.1691504  )
    ( -0.3939513   0.6577446  -0.1675275  )
    ( -0.4084005   0.6091617  -0.1646481  )
    ( -0.4214363   0.5639816  -0.1601981  )
    ( -0.4335297   0.5223091  -0.15601    )
    ( -0.4336344   0.4753491  -0.1512459  )
    ( -0.4078247   0.4122646  -0.1465865  )
    ( -0.3430648   0.3431594  -0.133132   )
    ( -0.2303503   0.3015917  -0.08182669 )
    ( -0.01151751  0.2974035   0.         )
);



// ************************************************************************* // 

