/*---*- C++ -*-
 *
 * Greenwich OpenFOAM CFD Simulation Package
 *
 * Generated by GWpy v0.1.0.dev-8c9f512
 * Timestamp: 2015-11-25T15:41:15.991532+00:00
 *
 * 
 */

FoamFile             
{ 
    version              2.0 ;
    format               ascii ;
    class                dictionary ;
    object               "77.3769_" ;
}

// * * * * * * * * * * * * * * * * * * * * * * * * * * * * * * * * * * * * * // 

aoa                  
( -180. -175. -170. -165. -160. -155. -150. -145. -140. -135. -130.
  -125. -120. -115. -110. -105. -100.  -95.  -90.  -85.  -80.  -75.
   -70.  -65.  -60.  -55.  -50.  -45.  -40.  -35.  -30.  -25.  -20.
   -15.  -14.  -13.  -12.  -11.  -10.   -9.   -8.   -7.   -6.   -5.
    -4.   -3.   -2.   -1.    0.    1.    2.    3.    4.    5.    6.
     7.    8.    9.   10.   11.   12.   13.   14.   15.   16.   17.
    18.   19.   20.   25.   30.   35.   40.   45.   50.   55.   60.
    65.   70.   75.   80.   85.   90.   95.  100.  105.  110.  115.
   120.  125.  130.  135.  140.  145.  150.  155.  160.  165.  170.
   175.  180. );

polars               
(
    (  -8.29513700e-03   3.82064200e-01   0.00000000e+00 )
    (   2.03230900e-01   3.85080600e-01   4.01937100e-02 )
    (   2.94929800e-01   4.14943100e-01   6.30053300e-02 )
    (   2.97493800e-01   4.64789300e-01   8.27628500e-02 )
    (   2.97079000e-01   5.10261700e-01   9.40744000e-02 )
    (   3.03564300e-01   5.44083200e-01   1.01276100e-01 )
    (   3.07674200e-01   5.74096600e-01   1.05272800e-01 )
    (   3.02320000e-01   6.06636100e-01   1.08892500e-01 )
    (   2.88859300e-01   6.41626500e-01   1.13077800e-01 )
    (   2.70723100e-01   6.77521800e-01   1.15189300e-01 )
    (   2.50701700e-01   7.12813900e-01   1.17715500e-01 )
    (   2.28493300e-01   7.46182900e-01   1.19110600e-01 )
    (   2.03230900e-01   7.76460200e-01   1.20581100e-01 )
    (   1.73858500e-01   8.02665300e-01   1.21410600e-01 )
    (   1.39207500e-01   8.24383400e-01   1.21109000e-01 )
    (   9.81088300e-02   8.41539300e-01   1.21109000e-01 )
    (   4.93183600e-02   8.53906600e-01   1.20505700e-01 )
    (  -8.37054700e-03   8.61410000e-01   1.18582700e-01 )
    (  -7.40906500e-02   8.63936200e-01   1.16094200e-01 )
    (  -1.39132100e-01   8.61410000e-01   1.13492500e-01 )
    (  -1.94784900e-01   8.53869000e-01   1.10664700e-01 )
    (  -2.48552500e-01   8.41463900e-01   1.06592500e-01 )
    (  -2.83580500e-01   8.24270400e-01   1.02294100e-01 )
    (  -3.11934900e-01   8.02552200e-01   9.70531100e-02 )
    (  -3.35953000e-01   7.76460200e-01   9.24907600e-02 )
    (  -3.57218800e-01   7.46220600e-01   8.63071200e-02 )
    (  -3.73997600e-01   7.12059700e-01   7.97841400e-02 )
    (  -3.83876300e-01   6.74241500e-01   7.31480300e-02 )
    (  -3.84328800e-01   6.33142800e-01   6.44758300e-02 )
    (  -3.72979500e-01   5.88952400e-01   5.19954300e-02 )
    (  -3.47264600e-01   5.42047100e-01   3.74412300e-02 )
    (  -3.12123400e-01   4.93294400e-01   2.35280200e-02 )
    (  -3.01641300e-01   4.46012100e-01   1.23295900e-02 )
    (  -2.36411400e-01   4.20108600e-01   9.72793400e-03 )
    (  -2.37919600e-01   4.15093900e-01   8.06890600e-03 )
    (  -2.34903200e-01   4.11474200e-01   6.56069900e-03 )
    (  -2.34903200e-01   4.07100400e-01   5.05249200e-03 )
    (  -2.27739200e-01   4.02425000e-01   2.63936200e-03 )
    (  -2.19444100e-01   3.97561000e-01  -7.54103400e-04 )
    (  -2.00591500e-01   3.95638000e-01  -4.52462000e-03 )
    (  -1.83624200e-01   3.92659300e-01  -9.04924000e-03 )
    (  -1.54968300e-01   3.88398600e-01  -1.43279600e-02 )
    (  -1.19148300e-01   3.84892000e-01  -1.84755300e-02 )
    (  -8.63448200e-02   3.83346100e-01  -2.60165600e-02 )
    (  -5.46724900e-02   3.81951000e-01  -2.82788800e-02 )
    (  -1.88525800e-02   3.81008400e-01  -3.24264500e-02 )
    (   3.24264500e-02   3.80556000e-01  -3.43117000e-02 )
    (   8.25743200e-02   3.80442800e-01  -3.65740100e-02 )
    (   1.27066400e-01   3.80442800e-01  -3.77051700e-02 )
    (   1.77214300e-01   3.80405100e-01  -3.95904300e-02 )
    (   2.28870400e-01   3.80669000e-01  -4.03445300e-02 )
    (   2.73362500e-01   3.81347700e-01  -4.29838900e-02 )
    (   3.17477500e-01   3.81913300e-01  -4.41150400e-02 )
    (   3.54428500e-01   3.82705200e-01  -4.51707900e-02 )
    (   3.94019000e-01   3.83610100e-01  -4.60003100e-02 )
    (   4.21543800e-01   3.84665800e-01  -4.60003100e-02 )
    (   4.39642300e-01   3.85608400e-01  -4.63773600e-02 )
    (   4.44543900e-01   3.88360900e-01  -4.58494900e-02 )
    (   4.33609400e-01   3.92734700e-01  -4.56986700e-02 )
    (   4.26068400e-01   3.98428200e-01  -4.55855400e-02 )
    (   4.21543800e-01   4.06195400e-01  -4.67544000e-02 )
    (   4.23052000e-01   4.20825100e-01  -4.73576900e-02 )
    (   4.26445500e-01   4.32815300e-01  -4.82626200e-02 )
    (   4.21543800e-01   4.46879300e-01  -4.90167100e-02 )
    (   4.17019100e-01   4.60453200e-01  -4.97708200e-02 )
    (   4.17019100e-01   4.66825400e-01  -5.09019800e-02 )
    (   4.15511000e-01   4.74705800e-01  -5.09019800e-02 )
    (   4.17019100e-01   4.78740200e-01  -5.09019800e-02 )
    (   4.17019100e-01   4.83868100e-01  -5.20331300e-02 )
    (   4.15888000e-01   5.11920800e-01  -5.81413700e-02 )
    (   4.14756800e-01   5.59165300e-01  -6.38348500e-02 )
    (   4.08724000e-01   5.98831200e-01  -6.94906300e-02 )
    (   4.47560300e-01   6.38119900e-01  -7.51464000e-02 )
    (   4.78855700e-01   6.76994000e-01  -8.07644700e-02 )
    (   4.87527800e-01   7.13115500e-01  -8.63825400e-02 )
    (   4.74708000e-01   7.45240300e-01  -9.19629000e-02 )
    (   4.64527700e-01   7.74499500e-01  -9.75055700e-02 )
    (   3.94169800e-01   7.94671800e-01  -1.03048200e-01 )
    (   3.59895800e-01   8.19896600e-01  -1.07271200e-01 )
    (   3.18684100e-01   8.39390100e-01  -1.10815500e-01 )
    (   2.72005100e-01   8.53190200e-01  -1.14246700e-01 )
    (   2.13260400e-01   8.61334600e-01  -1.18092600e-01 )
    (   1.45391100e-01   8.63936200e-01  -1.18695900e-01 )
    (   7.49578700e-02   8.61334600e-01  -1.22541800e-01 )
    (   8.70989400e-03   8.53718000e-01  -1.24577900e-01 )
    (  -5.15806700e-02   8.41313100e-01  -1.25068000e-01 )
    (  -1.05499100e-01   8.24232600e-01  -1.24502500e-01 )
    (  -1.52705900e-01   8.02514400e-01  -1.23484400e-01 )
    (  -1.92673400e-01   7.76384800e-01  -1.22541800e-01 )
    (  -2.25213000e-01   7.46107500e-01  -1.22164700e-01 )
    (  -2.50777000e-01   7.12738500e-01  -1.22240200e-01 )
    (  -2.69969000e-01   6.77446400e-01  -1.21825400e-01 )
    (  -2.83731400e-01   6.41588800e-01  -1.20656500e-01 )
    (  -2.94138000e-01   6.06598400e-01  -1.18582700e-01 )
    (  -3.03526600e-01   5.74058800e-01  -1.15377800e-01 )
    (  -3.12236500e-01   5.44045600e-01  -1.12361400e-01 )
    (  -3.12311900e-01   5.10224000e-01  -1.08930200e-01 )
    (  -2.93723200e-01   4.64789300e-01  -1.05574500e-01 )
    (  -2.47082000e-01   4.15018500e-01  -9.58842500e-02 )
    (  -1.65902700e-01   3.85080600e-01  -5.89331800e-02 )
    (  -8.29513700e-03   3.82064200e-01   0.00000000e+00 )
);



// ************************************************************************* // 

