/*---*- C++ -*-
 *
 * Greenwich OpenFOAM CFD Simulation Package
 *
 * Generated by GWpy v0.1.0.dev-8c9f512
 * Timestamp: 2015-11-25T15:41:16.002356+00:00
 *
 * 
 */

FoamFile             
{ 
    version              2.0 ;
    format               ascii ;
    class                dictionary ;
    object               "87.6173_" ;
}

// * * * * * * * * * * * * * * * * * * * * * * * * * * * * * * * * * * * * * // 

aoa                  
( -180. -175. -170. -165. -160. -155. -150. -145. -140. -135. -130.
  -125. -120. -115. -110. -105. -100.  -95.  -90.  -85.  -80.  -75.
   -70.  -65.  -60.  -55.  -50.  -45.  -40.  -35.  -30.  -25.  -20.
   -15.  -14.  -13.  -12.  -11.  -10.   -9.   -8.   -7.   -6.   -5.
    -4.   -3.   -2.   -1.    0.    1.    2.    3.    4.    5.    6.
     7.    8.    9.   10.   11.   12.   13.   14.   15.   16.   17.
    18.   19.   20.   25.   30.   35.   40.   45.   50.   55.   60.
    65.   70.   75.   80.   85.   90.   95.  100.  105.  110.  115.
   120.  125.  130.  135.  140.  145.  150.  155.  160.  165.  170.
   175.  180. );

polars               
(
    (  -4.54032200e-03   4.80713400e-01   0.00000000e+00 )
    (   1.11237900e-01   4.82364400e-01   2.19999300e-02 )
    (   1.61429100e-01   4.98709600e-01   3.44858200e-02 )
    (   1.62832400e-01   5.25992800e-01   4.53000400e-02 )
    (   1.62605500e-01   5.50882000e-01   5.14913900e-02 )
    (   1.66155200e-01   5.69394100e-01   5.54332100e-02 )
    (   1.68404700e-01   5.85821800e-01   5.76208100e-02 )
    (   1.65474100e-01   6.03632300e-01   5.96020500e-02 )
    (   1.58106400e-01   6.22784200e-01   6.18928500e-02 )
    (   1.48179700e-01   6.42431400e-01   6.30485700e-02 )
    (   1.37220900e-01   6.61748400e-01   6.44312900e-02 )
    (   1.25065200e-01   6.80012900e-01   6.51949000e-02 )
    (   1.11237900e-01   6.96585100e-01   6.59997800e-02 )
    (   9.51610500e-02   7.10928300e-01   6.64538100e-02 )
    (   7.61948800e-02   7.22815800e-01   6.62887100e-02 )
    (   5.36996300e-02   7.32205900e-01   6.62887100e-02 )
    (   2.69942800e-02   7.38975200e-01   6.59585000e-02 )
    (  -4.58159900e-03   7.43082100e-01   6.49059700e-02 )
    (  -4.05533300e-02   7.44464800e-01   6.35438700e-02 )
    (  -7.61535800e-02   7.43082100e-01   6.21198600e-02 )
    (  -1.06615000e-01   7.38954500e-01   6.05720400e-02 )
    (  -1.36044600e-01   7.32164700e-01   5.83431600e-02 )
    (  -1.55217100e-01   7.22753800e-01   5.59904300e-02 )
    (  -1.70736800e-01   7.10866500e-01   5.31217800e-02 )
    (  -1.83883100e-01   6.96585100e-01   5.06245900e-02 )
    (  -1.95522800e-01   6.80033600e-01   4.72399900e-02 )
    (  -2.04706700e-01   6.61335600e-01   4.36696600e-02 )
    (  -2.10113800e-01   6.40635900e-01   4.00373900e-02 )
    (  -2.10361400e-01   6.18140700e-01   3.52906900e-02 )
    (  -2.04149400e-01   5.93953100e-01   2.84595700e-02 )
    (  -1.90074400e-01   5.68279700e-01   2.04933700e-02 )
    (  -1.70839900e-01   5.41595000e-01   1.28780000e-02 )
    (  -1.65102700e-01   5.15715100e-01   6.74857000e-03 )
    (  -1.29399200e-01   5.01536900e-01   5.32456100e-03 )
    (  -1.30224700e-01   4.98792100e-01   4.41649600e-03 )
    (  -1.28573700e-01   4.96810900e-01   3.59098200e-03 )
    (  -1.28573700e-01   4.94416900e-01   2.76546900e-03 )
    (  -1.24652500e-01   4.91857800e-01   1.44464800e-03 )
    (  -1.20112200e-01   4.89195600e-01  -4.12756700e-04 )
    (  -1.09793200e-01   4.88143000e-01  -2.47654000e-03 )
    (  -1.00506200e-01   4.86512600e-01  -4.95308100e-03 )
    (  -8.48214900e-02   4.84180500e-01  -7.84237700e-03 )
    (  -6.52155600e-02   4.82261200e-01  -1.01125400e-02 )
    (  -4.72606300e-02   4.81415100e-01  -1.42401000e-02 )
    (  -2.99248500e-02   4.80651400e-01  -1.54783700e-02 )
    (  -1.03189200e-02   4.80135500e-01  -1.77485300e-02 )
    (   1.77485300e-02   4.79887800e-01  -1.87804300e-02 )
    (   4.51968500e-02   4.79825900e-01  -2.00187000e-02 )
    (   6.95495000e-02   4.79825900e-01  -2.06378300e-02 )
    (   9.69978000e-02   4.79805300e-01  -2.16697200e-02 )
    (   1.25271600e-01   4.79949700e-01  -2.20824800e-02 )
    (   1.49624300e-01   4.80321200e-01  -2.35271200e-02 )
    (   1.73770500e-01   4.80630800e-01  -2.41462600e-02 )
    (   1.93995600e-01   4.81064200e-01  -2.47241300e-02 )
    (   2.15665300e-01   4.81559500e-01  -2.51781600e-02 )
    (   2.30731000e-01   4.82137400e-01  -2.51781600e-02 )
    (   2.40637100e-01   4.82653300e-01  -2.53845300e-02 )
    (   2.43320000e-01   4.84159900e-01  -2.50956000e-02 )
    (   2.37335000e-01   4.86553900e-01  -2.50130500e-02 )
    (   2.33207500e-01   4.89670200e-01  -2.49511400e-02 )
    (   2.30731000e-01   4.93921500e-01  -2.55909000e-02 )
    (   2.31556400e-01   5.01929000e-01  -2.59211100e-02 )
    (   2.33413900e-01   5.08491900e-01  -2.64164300e-02 )
    (   2.30731000e-01   5.16189800e-01  -2.68291800e-02 )
    (   2.28254400e-01   5.23619400e-01  -2.72419400e-02 )
    (   2.28254400e-01   5.27107200e-01  -2.78610700e-02 )
    (   2.27428900e-01   5.31420500e-01  -2.78610700e-02 )
    (   2.28254400e-01   5.33628800e-01  -2.78610700e-02 )
    (   2.28254400e-01   5.36435500e-01  -2.84802000e-02 )
    (   2.27635300e-01   5.51790100e-01  -3.18235400e-02 )
    (   2.27016100e-01   5.77649200e-01  -3.49398600e-02 )
    (   2.23714100e-01   5.99360200e-01  -3.80355300e-02 )
    (   2.44971000e-01   6.20864900e-01  -4.11312000e-02 )
    (   2.62100500e-01   6.42142500e-01  -4.42062300e-02 )
    (   2.66847100e-01   6.61913500e-01  -4.72812700e-02 )
    (   2.59830200e-01   6.79496900e-01  -5.03356800e-02 )
    (   2.54258100e-01   6.95511900e-01  -5.33694300e-02 )
    (   2.15747900e-01   7.06553100e-01  -5.64031700e-02 )
    (   1.96988000e-01   7.20359900e-01  -5.87146300e-02 )
    (   1.74431000e-01   7.31029600e-01  -6.06546000e-02 )
    (   1.48881300e-01   7.38583000e-01  -6.25326200e-02 )
    (   1.16727600e-01   7.43040800e-01  -6.46376800e-02 )
    (   7.95794700e-02   7.44464800e-01  -6.49678900e-02 )
    (   4.10280100e-02   7.43040800e-01  -6.70729300e-02 )
    (   4.76734000e-03   7.38872000e-01  -6.81873900e-02 )
    (  -2.82325500e-02   7.32082100e-01  -6.84557000e-02 )
    (  -5.77446500e-02   7.22733100e-01  -6.81461100e-02 )
    (  -8.35832100e-02   7.10845800e-01  -6.75889000e-02 )
    (  -1.05459300e-01   6.96543800e-01  -6.70729300e-02 )
    (  -1.23269700e-01   6.79971600e-01  -6.68665800e-02 )
    (  -1.37262200e-01   6.61707100e-01  -6.69078500e-02 )
    (  -1.47766900e-01   6.42390100e-01  -6.66808500e-02 )
    (  -1.55299700e-01   6.22763600e-01  -6.60410500e-02 )
    (  -1.60995700e-01   6.03611600e-01  -6.49059700e-02 )
    (  -1.66134500e-01   5.85801200e-01  -6.31517600e-02 )
    (  -1.70901900e-01   5.69373500e-01  -6.15007300e-02 )
    (  -1.70943100e-01   5.50861400e-01  -5.96226900e-02 )
    (  -1.60768700e-01   5.25992800e-01  -5.77859300e-02 )
    (  -1.35239700e-01   4.98750800e-01  -5.24820100e-02 )
    (  -9.08064500e-02   4.82364400e-01  -3.22569300e-02 )
    (  -4.54032200e-03   4.80713400e-01   0.00000000e+00 )
);



// ************************************************************************* // 

