/*---*- C++ -*-
 *
 * Greenwich OpenFOAM CFD Simulation Package
 *
 * Generated by GWpy v0.1.0.dev-8c9f512
 * Timestamp: 2015-11-25T15:41:16.010826+00:00
 *
 * 
 */

FoamFile             
{ 
    version              2.0 ;
    format               ascii ;
    class                dictionary ;
    object               "96.4716_" ;
}

// * * * * * * * * * * * * * * * * * * * * * * * * * * * * * * * * * * * * * // 

aoa                  
( -180. -175. -170. -165. -160. -155. -150. -145. -140. -135. -130.
  -125. -120. -115. -110. -105. -100.  -95.  -90.  -85.  -80.  -75.
   -70.  -65.  -60.  -55.  -50.  -45.  -40.  -35.  -30.  -25.  -20.
   -15.  -14.  -13.  -12.  -11.  -10.   -9.   -8.   -7.   -6.   -5.
    -4.   -3.   -2.   -1.    0.    1.    2.    3.    4.    5.    6.
     7.    8.    9.   10.   11.   12.   13.   14.   15.   16.   17.
    18.   19.   20.   25.   30.   35.   40.   45.   50.   55.   60.
    65.   70.   75.   80.   85.   90.   95.  100.  105.  110.  115.
   120.  125.  130.  135.  140.  145.  150.  155.  160.  165.  170.
   175.  180. );

polars               
(
    (  -1.29374500e-03   5.66009800e-01   0.00000000e+00 )
    (   3.16968000e-02   5.66480200e-01   6.26878400e-03 )
    (   4.59985100e-02   5.71137800e-01   9.82658600e-03 )
    (   4.63984000e-02   5.78912000e-01   1.29080600e-02 )
    (   4.63337300e-02   5.86004000e-01   1.46722500e-02 )
    (   4.73452200e-02   5.91279000e-01   1.57954700e-02 )
    (   4.79861500e-02   5.95960000e-01   1.64187800e-02 )
    (   4.71511500e-02   6.01035000e-01   1.69833300e-02 )
    (   4.50517500e-02   6.06492300e-01   1.76360900e-02 )
    (   4.22231600e-02   6.12090600e-01   1.79654100e-02 )
    (   3.91005300e-02   6.17595000e-01   1.83594200e-02 )
    (   3.56367800e-02   6.22799300e-01   1.85770100e-02 )
    (   3.16968000e-02   6.27521500e-01   1.88063700e-02 )
    (   2.71157300e-02   6.31608500e-01   1.89357100e-02 )
    (   2.17114100e-02   6.34995800e-01   1.88886800e-02 )
    (   1.53014700e-02   6.37671500e-01   1.88886800e-02 )
    (   7.69190500e-03   6.39600400e-01   1.87946000e-02 )
    (  -1.30550700e-03   6.40770600e-01   1.84946700e-02 )
    (  -1.15555100e-02   6.41164600e-01   1.81065500e-02 )
    (  -2.16996400e-02   6.40770600e-01   1.77007900e-02 )
    (  -3.03795000e-02   6.39594600e-01   1.72597500e-02 )
    (  -3.87653100e-02   6.37659800e-01   1.66246300e-02 )
    (  -4.42284300e-02   6.34978200e-01   1.59542300e-02 )
    (  -4.86507400e-02   6.31591000e-01   1.51368200e-02 )
    (  -5.23966600e-02   6.27521500e-01   1.44252600e-02 )
    (  -5.57134200e-02   6.22805200e-01   1.34608300e-02 )
    (  -5.83303000e-02   6.17477400e-01   1.24434800e-02 )
    (  -5.98710200e-02   6.11579100e-01   1.14084900e-02 )
    (  -5.99415900e-02   6.05169100e-01   1.00559300e-02 )
    (  -5.81714500e-02   5.98277000e-01   8.10943500e-03 )
    (  -5.41608900e-02   5.90961500e-01   5.83949700e-03 )
    (  -4.86800700e-02   5.83357800e-01   3.66953000e-03 )
    (  -4.70452900e-02   5.75983400e-01   1.92297600e-03 )
    (  -3.68717300e-02   5.71943300e-01   1.51721000e-03 )
    (  -3.71069300e-02   5.71161200e-01   1.25846100e-03 )
    (  -3.66365300e-02   5.70596800e-01   1.02323500e-03 )
    (  -3.66365300e-02   5.69914600e-01   7.88008800e-04 )
    (  -3.55191800e-02   5.69185400e-01   4.11646400e-04 )
    (  -3.42254600e-02   5.68426800e-01  -1.17613400e-04 )
    (  -3.12851100e-02   5.68126900e-01  -7.05679900e-04 )
    (  -2.86388400e-02   5.67662400e-01  -1.41136000e-03 )
    (  -2.41695300e-02   5.66997800e-01  -2.23465300e-03 )
    (  -1.85828800e-02   5.66450800e-01  -2.88152300e-03 )
    (  -1.34667200e-02   5.66209700e-01  -4.05765300e-03 )
    (  -8.52695100e-03   5.65992200e-01  -4.41049000e-03 )
    (  -2.94033100e-03   5.65845100e-01  -5.05737200e-03 )
    (   5.05737200e-03   5.65774600e-01  -5.35140200e-03 )
    (   1.28786600e-02   5.65757000e-01  -5.70424600e-03 )
    (   1.98178300e-02   5.65757000e-01  -5.88066100e-03 )
    (   2.76390900e-02   5.65751000e-01  -6.17469100e-03 )
    (   3.56956100e-02   5.65792200e-01  -6.29230600e-03 )
    (   4.26347900e-02   5.65898100e-01  -6.70395000e-03 )
    (   4.95151900e-02   5.65986300e-01  -6.88037300e-03 )
    (   5.52781800e-02   5.66109800e-01  -7.04503100e-03 )
    (   6.14529300e-02   5.66250900e-01  -7.17441000e-03 )
    (   6.57458300e-02   5.66415600e-01  -7.17441000e-03 )
    (   6.85685900e-02   5.66562600e-01  -7.23321700e-03 )
    (   6.93329600e-02   5.66991900e-01  -7.15088800e-03 )
    (   6.76275500e-02   5.67674000e-01  -7.12736000e-03 )
    (   6.64514300e-02   5.68562000e-01  -7.10971700e-03 )
    (   6.57458300e-02   5.69773400e-01  -7.29201700e-03 )
    (   6.59810300e-02   5.72055100e-01  -7.38611100e-03 )
    (   6.65103200e-02   5.73925100e-01  -7.52725500e-03 )
    (   6.57458300e-02   5.76118600e-01  -7.64486200e-03 )
    (   6.50401100e-02   5.78235700e-01  -7.76246900e-03 )
    (   6.50401100e-02   5.79229500e-01  -7.93889200e-03 )
    (   6.48049100e-02   5.80458600e-01  -7.93889200e-03 )
    (   6.50401100e-02   5.81087800e-01  -7.93889200e-03 )
    (   6.50401100e-02   5.81887600e-01  -8.11530600e-03 )
    (   6.48636800e-02   5.86262800e-01  -9.06798200e-03 )
    (   6.46872500e-02   5.93631300e-01  -9.95595800e-03 )
    (   6.37463300e-02   5.99817700e-01  -1.08380600e-02 )
    (   6.98033600e-02   6.05945300e-01  -1.17201700e-02 )
    (   7.46845000e-02   6.12008300e-01  -1.25963700e-02 )
    (   7.60369300e-02   6.17642000e-01  -1.34726000e-02 )
    (   7.40375500e-02   6.22652300e-01  -1.43429300e-02 )
    (   7.24498000e-02   6.27215700e-01  -1.52073900e-02 )
    (   6.14764100e-02   6.30361900e-01  -1.60718300e-02 )
    (   5.61308900e-02   6.34296100e-01  -1.67304900e-02 )
    (   4.97033600e-02   6.37336300e-01  -1.72832600e-02 )
    (   4.24231300e-02   6.39488600e-01  -1.78183900e-02 )
    (   3.32610000e-02   6.40758900e-01  -1.84182200e-02 )
    (   2.26758100e-02   6.41164600e-01  -1.85123100e-02 )
    (   1.16907500e-02   6.40758900e-01  -1.91121400e-02 )
    (   1.35843300e-03   6.39571000e-01  -1.94297100e-02 )
    (  -8.04474900e-03   6.37636200e-01  -1.95061600e-02 )
    (  -1.64541000e-02   6.34972300e-01  -1.94179400e-02 )
    (  -2.38166700e-02   6.31585100e-01  -1.92591500e-02 )
    (  -3.00501600e-02   6.27509700e-01  -1.91121400e-02 )
    (  -3.51252000e-02   6.22787600e-01  -1.90533400e-02 )
    (  -3.91122700e-02   6.17583200e-01  -1.90651100e-02 )
    (  -4.21055600e-02   6.12078900e-01  -1.90004400e-02 )
    (  -4.42519800e-02   6.06486400e-01  -1.88181100e-02 )
    (  -4.58750100e-02   6.01029200e-01  -1.84946700e-02 )
    (  -4.73393200e-02   5.95954100e-01  -1.79948200e-02 )
    (  -4.86977700e-02   5.91273100e-01  -1.75243600e-02 )
    (  -4.87095100e-02   5.85998200e-01  -1.69892300e-02 )
    (  -4.58103400e-02   5.78912000e-01  -1.64658700e-02 )
    (  -3.85359500e-02   5.71149500e-01  -1.49545400e-02 )
    (  -2.58749100e-02   5.66480200e-01  -9.19148300e-03 )
    (  -1.29374500e-03   5.66009800e-01   0.00000000e+00 )
);



// ************************************************************************* // 

