/*---*- C++ -*-
 *
 * Greenwich OpenFOAM CFD Simulation Package
 *
 * Generated by GWpy v0.2.0.dev-6f8864d
 * Timestamp: 2016-01-20T16:59:43.574771+00:00
 *
 * 
 */

FoamFile             
{ 
    version              2.0 ;
    format               ascii ;
    class                dictionary ;
    object               "controlTable" ;
}

// * * * * * * * * * * * * * * * * * * * * * * * * * * * * * * * * * * * * * // 

wind                 
(   
    3.    3.1   3.2   3.3   3.4   3.5   3.6   3.7   3.8   3.9   4.
    4.1   4.2   4.3   4.4   4.5   4.6   4.7   4.8   4.9   5.    5.1
    5.2   5.3   5.4   5.5   5.6   5.7   5.8   5.9   6.    6.1   6.2
    6.3   6.4   6.5   6.6   6.7   6.8   6.9   7.    7.1   7.2   7.3
    7.4   7.5   7.6   7.7   7.8   7.9   8.    8.1   8.2   8.3   8.4
    8.5   8.6   8.7   8.8   8.9   9.    9.1   9.2   9.3   9.4   9.5
    9.6   9.7   9.8   9.9  10.   10.1  10.2  10.3  10.4  10.5  10.6
   10.7  10.8  10.9  11.   11.1  11.2  11.3  11.4  11.5  11.6  11.7
   11.8  11.9  12.   12.1  12.2  12.3  12.4  12.5  12.6  12.7  12.8
   12.9  13.   13.1  13.2  13.3  13.4  13.5  13.6  13.7  13.8  13.9
   14.   14.1  14.2  14.3  14.4  14.5  14.6  14.7  14.8  14.9  15.
   15.1  15.2  15.3  15.4  15.5  15.6  15.7  15.8  15.9  16.   16.1
   16.2  16.3  16.4  16.5  16.6  16.7  16.8  16.9  17.   17.1  17.2
   17.3  17.4  17.5  17.6  17.7  17.8  17.9  18.   18.1  18.2  18.3
   18.4  18.5  18.6  18.7  18.8  18.9  19.   19.1  19.2  19.3  19.4
   19.5  19.6  19.7  19.8  19.9  20.   20.1  20.2  20.3  20.4  20.5
   20.6  20.7  20.8  20.9  21.   21.1  21.2  21.3  21.4  21.5  21.6
   21.7  21.8  21.9  22.   22.1  22.2  22.3  22.4  22.5  22.6  22.7
   22.8  22.9  23.   23.1  23.2  23.3  23.4  23.5  23.6  23.7  23.8
   23.9  24.   24.1  24.2  24.3  24.4  24.5  24.6  24.7  24.8  24.9
   25.  );

pitch                
(  
   -0.500002  -0.500002  -0.500002  -0.500002  -0.500002  -0.500002
   -0.500002  -0.500002  -0.500002  -0.500002  -0.500002  -0.500002
   -0.500002  -0.500002  -0.500002  -0.500002  -0.500002  -0.500002
   -0.500002  -0.500002  -0.500002  -0.500002  -0.500002  -0.500002
   -0.500002  -0.500002  -0.500002  -0.500002  -0.500002  -0.500002
   -0.500002  -0.500002  -0.500002  -0.500002  -0.500002  -0.500002
   -0.500002  -0.500002  -0.500002  -0.500002  -0.500002  -0.500002
   -0.500002  -0.500002  -0.500002  -0.500002  -0.500002  -0.500002
   -0.500002  -0.500002  -0.500002  -0.500002  -0.500002  -0.500002
   -0.500002  -0.500002  -0.500002  -0.500002  -0.500002  -0.500002
   -0.500002  -0.500002  -0.500002  -0.500002  -0.208352   0.706352
    1.37742    1.91026    2.37321    2.79113    3.17196    3.51527
    3.83579    4.14134    4.43414    4.71651    4.98811    5.25318
    5.51047    5.76201    6.00776    6.24712    6.47958    6.71036
    6.93685    7.16224    7.38341    7.59802    7.81       8.01907
    8.22439    8.42631    8.62616    8.82131    9.01442    9.20407
    9.39116    9.57529    9.7572     9.93669   10.1164    10.2911
   10.4632    10.6332    10.8012    10.9674    11.132     11.295
   11.4568    11.6171    11.7763    11.9343    12.0912    12.2469
   12.4014    12.5546    12.707     12.8584    13.0087    13.1579
   13.3062    13.4526    13.5981    13.7423    13.8853    14.0278
   14.1687    14.3084    14.4471    14.5848    14.7213    14.8572
   14.9924    15.1265    15.2601    15.3932    15.5254    15.6569
   15.7878    15.9181    16.0477    16.1768    16.3055    16.4334
   16.5608    16.688     16.8147    16.941     17.067     17.1923
   17.3177    17.4424    17.5666    17.6909    17.814     17.9371
   18.0599    18.1823    18.3043    18.426     18.5471    18.668
   18.7891    18.9099    19.0301    19.1501    19.27      19.3894
 19.5088 19.6282 19.7476 19.867  19.9864 20.1058 20.2252 20.3446 20.464
 20.5834 20.7028 20.8222 20.9416 21.061  21.1804 21.2998 21.4192 21.5386
 21.658  21.7774 21.8968 22.0162 22.1356 22.255  22.3744 22.4938 22.6132
 22.7326 22.852  22.9714 23.0908 23.2102 23.3296 23.449  23.5684 23.6878
 23.8072 23.9266 24.046  24.1654 24.2848 24.4042 24.5236 24.643  24.7624
 24.8818 25.0012 25.1206 25.24   25.3594 25.4788 25.5982 25.7176 );

rpm 
(   
    9.15254   9.15254   9.15254   9.15254   9.15254   9.15254   9.15254
    9.15254   9.15254   9.15254   9.15254   9.15254   9.15254   9.15254
    9.15254   9.15254   9.15254   9.15254   9.15254   9.15254   9.15254
    9.15254   9.15254   9.19342   9.36972   9.54503   9.72052   9.89613
   10.0709   10.2456   10.4219   10.5967   10.7723   10.9472   11.1182
   11.2978   11.4734   11.649    11.8247   11.9997   12.1744   12.3508
   12.5261   12.7019   12.8771   13.0528   13.2285   13.4039   13.5796
   13.7547   13.9309   14.0678   14.0678   14.0678   14.0678   14.0678
   14.0678   14.0678   14.0678   14.0678   14.0678   14.0678   14.0678
   14.0678   14.2373   14.2373   14.2373   14.2373   14.2373   14.2373
   14.2373   14.2373   14.2373   14.2373   14.2373   14.2373   14.2373
   14.2373   14.2373   14.2373   14.2373   14.2373   14.2373   14.2373
   14.2373   14.2373   14.2373   14.2373   14.2373   14.2373   14.2373
   14.2373   14.2373   14.2373   14.2373   14.2373   14.2373   14.2373
   14.2373   14.2373   14.2373   14.2373   14.2373   14.2373   14.2373
   14.2373   14.2373   14.2373   14.2373   14.2373   14.2373   14.2373
   14.2373   14.2373   14.2373   14.2373   14.2373   14.2373   14.2373
   14.2373   14.2373   14.2373   14.2373   14.2373   14.2373   14.2373
   14.2373   14.2373   14.2373   14.2373   14.2373   14.2373   14.2373
   14.2373   14.2373   14.2373   14.2373   14.2373   14.2373   14.2373
   14.2373   14.2373   14.2373   14.2373   14.2373   14.2373   14.2373
   14.2373   14.2373   14.2373   14.2373   14.2373   14.2373   14.2373
   14.2373   14.2373   14.2373   14.2373   14.2373   14.2373   14.2373
   14.2373   14.2373   14.2373   14.2373   14.2373   14.2373   14.2373
   14.2373   14.2373   14.2373   14.2373   14.2373   14.2373   14.2373   14.2373
   14.2373   14.2373   14.2373   14.2373   14.2373   14.2373   14.2373   14.2373
   14.2373   14.2373   14.2373   14.2373   14.2373   14.2373   14.2373   14.2373
   14.2373   14.2373   14.2373   14.2373   14.2373   14.2373   14.2373   14.2373
   14.2373   14.2373   14.2373   14.2373   14.2373   14.2373   14.2373   14.2373
   14.2373   14.2373   14.2373   14.2373   14.2373   14.2373   14.2373   14.2373
   14.2373   14.2373   14.2373   14.2373   14.2373      );


// ************************************************************************* // 

