/*---*- C++ -*-
 *
 * Greenwich OpenFOAM CFD Simulation Package
 *
 * Generated by GWpy v0.1.0.dev-2088c11
 * Timestamp: 2015-11-28T22:58:21.421791+00:00
 *
 * 
 */

FoamFile             
{ 
    version              2.0 ;
    format               ascii ;
    class                dictionary ;
    object               "bladeProperties" ;
}

// * * * * * * * * * * * * * * * * * * * * * * * * * * * * * * * * * * * * * // 

Nb                      3 ;

tilt                 -6.0 ;

coning               -3.0 ;
    
optTSR               10.0 ;
    
optPitch             -0.5 ;

BladeInertia     5851055.5;

HubInertia         27766.0;

GenInertia          163.38;

GBoxRatio            118.0;

KGen              0.003046;

GenRPMmin           1080.0;

GenRPMmax           1680.0;

GenTorqueMax       12693.0;


spanLocations
(   1.2405   1.628    2.128    3.128    4.128    5.128    6.128    7.128
    8.128    9.128   10.128   11.128   12.128   13.128   14.128   15.128
   16.128   17.128   18.128   19.128   20.128   21.128   22.128   23.128
   24.128   25.128   26.128   27.128   28.128   29.128   30.128   31.128
   32.128   33.128   34.128   35.128   36.128   37.128   38.128   39.128
   40.128   41.128   42.128   43.128   44.128   45.128   46.128   47.128
   48.128   49.128   50.128   51.128   52.128   52.628   53.128   53.628
   54.128   54.628   54.928   54.9655 );

twist                
(  10.       10.       10.       10.8189   11.8207   13.011    14.0694
   14.7978   15.1041   15.1291   14.9895   14.4239   13.2192   11.7958
   10.6432    9.72673   8.89067   8.12232   7.43024   6.81733   6.25904
    5.75288   5.29285   4.88005   4.49841   4.13986   3.8154    3.50697
    3.22319   2.95658   2.71216   2.47613   2.2611    2.05354   1.84164
    1.62676   1.42605   1.24204   1.06246   0.8857    0.71793   0.56073
    0.41057   0.26169   0.11748  -0.01803  -0.15022  -0.27913  -0.40151
   -0.52049  -0.62208  -0.73145  -0.80242  -0.81867  -0.86167  -0.9361
   -0.67863   1.82709   5.19508   5.93    );

chord                
(  2.41      2.41      2.41      2.46269   2.64773   2.88943   3.12678
   3.36274   3.60124   3.81739   3.97164   4.02566   4.02601   3.96614
   3.86357   3.74259   3.60921   3.47406   3.33677   3.19546   3.03385
   2.8742    2.72716   2.59302   2.48641   2.39296   2.30366   2.22153
   2.14469   2.07312   2.00621   1.94343   1.88058   1.82137   1.76566
   1.71259   1.66059   1.60877   1.55715   1.50572   1.45448   1.40344
   1.3553    1.30716   1.25902   1.21087   1.16273   1.11459   1.06645
   1.01829   0.970181  0.922026  0.873623  0.850064  0.826849  0.79881
   0.73559   0.504251  0.116094  0.025    );

airfoils             
( 
    "100_"
    "96.4716_"
    "87.6173_"
    "77.3769_"
    "68.5886_"
    "61.2931_"
    "54.9469_"
    "49.4248_"
    "44.9454_"
    "41.64_"
    "39.41_"
    "37.9589_"
    "36.8498_"
    "35.7827_"
    "34.8068_"
    "33.9291_"
    "33.1458_"
    "32.4425_"
    "31.8151_"
    "31.233_"
    "30.613_"
    "30.0484_"
    "29.5192_"
    "29.0264_"
    "28.558_"
    "28.0485_"
    "27.5571_"
    "27.0798_"
    "26.6025_"
    "26.1168_"
    "25.6247_"
    "25.1219_"
    "24.6105_"
    "24.0836_"
    "23.4948_"
    "22.8783_"
    "22.2876_"
    "21.7233_"
    "21.1863_"
    "20.6967_"
    "20.3429_"
    "20.0525_"
    "19.7839_"
    "19.5387_"
    "19.3103_"
    "19.0944_"
    "18.8891_"
    "18.6913_"
    "18.4968_"
    "18.2959_"
    "18.1126_"
    "17.9947_"
    "17.8596_"
    "17.5135_"
    "16.7653_"
    "16.1104_"
    "16_"
);

airfoilmap           
(  1  1  1  2  3  4  5  6  7  8  9 10 11 12 13 14 15 16 17 18 19 20 21
  22 23 24 25 26 27 28 29 30 31 32 33 34 35 36 37 38 39 40 41 42 43 44
  45 46 47 48 49 50 51 52 53 54 55 56 56 56 );



// ************************************************************************* // 

