/*---*- C++ -*-
 *
 * Greenwich OpenFOAM CFD Simulation Package
 *
 * Generated by GWpy v0.2.0.dev-6f8864d
 * Timestamp: 2016-01-20T16:59:43.574771+00:00
 *
 * 
 */

FoamFile             
{ 
    version              2.0 ;
    format               ascii ;
    class                dictionary ;
    object               "controlTable" ;
}

// * * * * * * * * * * * * * * * * * * * * * * * * * * * * * * * * * * * * * // 

wind                 
(   
    3.0 4.0 5.0 6.0 7.0 8.0 9.0 10.0 11.0
);
 
pitch                
(  
	1.6641 1.6641 1.6641 1.6641 1.6641 1.6641 1.6641 1.6641 1.6641
);

rpm 
(   
    15.8098 20.902 26.0706 31.2639 36.4625 41.6611 43.5657 43.6256 43.6896
);


// ************************************************************************* // 

