/*---*- C++ -*-
 *
 * Greenwich OpenFOAM CFD Simulation Package
 *
 * Generated by GWpy v0.1.0.dev-2088c11
 * Timestamp: 2015-11-28T22:58:21.421791+00:00
 *
 * 
 */

FoamFile             
{ 
    version              2.0 ;
    format               ascii ;
    class                dictionary ;
    object               "bladeProperties" ;
}

// * * * * * * * * * * * * * * * * * * * * * * * * * * * * * * * * * * * * * // 

Nb                      3 ;

tilt                 -4.05 ;

coning               0.0 ;
    
optTSR               10.0 ;
    
optPitch             -0.5 ;

BladeInertia     13294;

HubInertia          69.1;

GenInertia          50.0;

GBoxRatio            27.5647;

KGen              0.003046;

GenRPMmin           1080.0;

GenRPMmax           1680.0;

GenTorqueMax       12693.0;


spanLocations
(   0.82500  1.47500  2.12500  2.77500 3.42500 4.07500 4.72500  5.37500  
	6.02500  6.67500  7.32500  7.97500 8.62500 9.27500 9.92500 10.57500    
	11.22500 11.87500 12.52500 13.17500 
);
   
twist                
(  13.9573		13.0025		12.0596		11.1288    10.2102		9.3046		8.3928   
	7.4834		 6.6249  	 5.8527 	 5.1189		4.4182   	3.7563  	3.1393     
	2.5731  	 2.0579		 1.5793 	 1.1394 	0.7418      0.3900    
);   

chord                
(  0.589	0.979	1.2728	1.2276	1.1823	1.1368	1.091	1.045	0.999 
	0.953 	0.9072	0.8614	0.8155	0.7694 	0.7231	0.6764 	0.6295 	0.5823  
	0.5348  0.4871    
);
   
airfoils             
( 
	"AD_1_cylinder"
	"AD_2_63_235_mod"
	"AD_3_63_224_mod"
	"AD_4_63_218_mod"
	"AD_5_63_214_mod"
);

airfoilmap           
(  1 2 2 2 2 3 3 3 3 3 3 3 4 4 4 4 4 4 5 5);



// ************************************************************************* // 

