/*---*- C++ -*-
 *
 * Greenwich OpenFOAM CFD Simulation Package
 *
 * Generated by GWpy v0.1.0.dev-8c9f512
 * Timestamp: 2015-11-25T15:41:15.459013+00:00
 *
 * 
 */

FoamFile             
{ 
    version              2.0 ;
    format               ascii ;
    class                dictionary ;
    object               "AD_1_cylinder" ;
}

// * * * * * * * * * * * * * * * * * * * * * * * * * * * * * * * * * * * * * // 

aoa                  
( -180. 0.0 180. );

polars               
(
    (     0.0000      0.5000     0.0000)
    (     0.0000      0.5000     0.0000)
    (     0.0000      0.5000     0.0000)
);

// ************************************************************************* // 
