/*---*- C++ -*-
 *
 * Greenwich OpenFOAM CFD Simulation Package
 *
 * Generated by GWpy v0.1.0.dev-8c9f512
 * Timestamp: 2015-11-25T15:41:15.459013+00:00
 *
 * 
 */

FoamFile             
{ 
    version              2.0 ;
    format               ascii ;
    class                dictionary ;
    object               "AD_3_63_224_mod" ;
}

// * * * * * * * * * * * * * * * * * * * * * * * * * * * * * * * * * * * * * // 

aoa                  
( -180.0  -175.0  -170.0  -165.0  -160.0  -155.0  -150.0  -145.0  -140.0  -135.0  -130.0  -125.0  -120.0  -115.0  -110.0  -105.0  -100.0   -95.0   -90.0   -85.0   -80.0   -75.0   -70.0   -65.0   -60.0   -55.0   -50.0   -45.0   -40.0   -35.0   -30.0   -25.0   -21.0   -20.0   -19.0   -18.0   -17.0   -16.0   -15.0   -14.0   -13.0   -12.0   -11.0   -10.0    -9.5    -9.0    -8.5    -8.0    -7.5    -7.0    -6.5    -6.0    -5.5    -5.0    -4.5    -4.0    -3.5    -3.0    -2.5    -2.0    -1.5    -1.0    -0.5     0.0     0.5     1.0     1.5     2.0     2.5     3.0     3.5     4.0     4.5     5.0     5.5     6.0     6.5     7.0     7.5     8.0     8.5     9.0     9.5    10.0    10.5    11.0    11.5    12.0    12.5    13.0    13.5    14.0    14.5    15.0    15.5    16.0    16.5    17.0    17.5    18.0    18.5    19.0    19.5    20.0    20.5    21.0    21.5    22.0    22.5    23.0    23.5    24.0    24.5    25.0    25.5    26.0    26.5    27.0    27.5    28.0    30.0    35.0    40.0    45.0    50.0    55.0    60.0    65.0    70.0    75.0    80.0    85.0    90.0    95.0   100.0   105.0   110.0   115.0   120.0   125.0   130.0   135.0   140.0   145.0   150.0   155.0   160.0   165.0   170.0   175.0   180.0
);

polars               
(
    (     0.0000      0.0100     0.0000)
    (     0.3581     -0.0042     0.3203)
    (     0.6023      0.0100     0.4000)
    (     0.7419      0.0507     0.3436)
    (     0.7862      0.1158     0.2554)
    (     0.7534      0.2026     0.2164)
    (     0.6976      0.3054     0.2133)
    (     0.6669      0.4184     0.2158)
    (     0.6484      0.5384     0.2211)
    (     0.6199      0.6626     0.2319)
    (     0.5801      0.7873     0.2462)
    (     0.5324      0.9084     0.2610)
    (     0.4762      1.0225     0.2755)
    (     0.4108      1.1262     0.2891)
    (     0.3371      1.2163     0.3007)
    (     0.2570      1.2900     0.3096)
    (     0.1728      1.3462     0.3154)
    (     0.0868      1.3834     0.3176)
    (     0.0000      1.3971     0.3151)
    (    -0.0868      1.3834     0.3069)
    (    -0.1728      1.3462     0.2941)
    (    -0.2570      1.2900     0.2783)
    (    -0.3371      1.2163     0.2600)
    (    -0.4106      1.1262     0.2397)
    (    -0.4762      1.0225     0.2179)
    (    -0.5330      0.9084     0.1953)
    (    -0.5801      0.7873     0.1734)
    (    -0.6179      0.6627     0.1530)
    (    -0.6484      0.5384     0.1319)
    (    -0.6745      0.4182     0.1099)
    (    -0.6976      0.3054     0.0968)
    (    -0.7250      0.2033     0.0948)
    (    -0.7696      0.1320     0.0758)
    (    -0.7862      0.1158     0.0654)
    (    -0.8054      0.1004     0.0522)
    (    -0.8260      0.0858     0.0369)
    (    -0.8467      0.0722     0.0207)
    (    -0.8660      0.0597     0.0045)
    (    -0.8827      0.0483    -0.0107)
    (    -0.8955      0.0382    -0.0239)
    (    -0.9028      0.0295    -0.0340)
    (    -0.9035      0.0223    -0.0401)
    (    -0.8961      0.0168    -0.0410)
    (    -0.8793      0.0129    -0.0359)
    (    -0.8659      0.0117    -0.0311)
    (    -0.8437      0.0107    -0.0267)
    (    -0.8084      0.0098    -0.0243)
    (    -0.7639      0.0090    -0.0234)
    (    -0.7150      0.0083    -0.0231)
    (    -0.6626      0.0078    -0.0231)
    (    -0.6068      0.0074    -0.0236)
    (    -0.5487      0.0072    -0.0243)
    (    -0.4896      0.0070    -0.0252)
    (    -0.4298      0.0069    -0.0262)
    (    -0.3697      0.0068    -0.0273)
    (    -0.3092      0.0068    -0.0284)
    (    -0.2485      0.0067    -0.0295)
    (    -0.1877      0.0067    -0.0306)
    (    -0.1267      0.0066    -0.0317)
    (    -0.0657      0.0066    -0.0329)
    (    -0.0047      0.0066    -0.0341)
    (     0.0563      0.0066    -0.0353)
    (     0.1173      0.0066    -0.0365)
    (     0.1783      0.0066    -0.0376)
    (     0.2392      0.0067    -0.0387)
    (     0.3001      0.0067    -0.0399)
    (     0.3609      0.0068    -0.0411)
    (     0.4215      0.0068    -0.0422)
    (     0.4819      0.0069    -0.0433)
    (     0.5422      0.0069    -0.0444)
    (     0.6023      0.0070    -0.0455)
    (     0.6622      0.0071    -0.0465)
    (     0.7217      0.0072    -0.0475)
    (     0.7809      0.0073    -0.0484)
    (     0.8397      0.0075    -0.0493)
    (     0.8976      0.0076    -0.0500)
    (     0.9543      0.0078    -0.0505)
    (     1.0092      0.0081    -0.0508)
    (     1.0616      0.0085    -0.0507)
    (     1.1098      0.0090    -0.0500)
    (     1.1513      0.0096    -0.0482)
    (     1.1819      0.0105    -0.0447)
    (     1.1987      0.0116    -0.0393)
    (     1.2074      0.0131    -0.0333)
    (     1.2147      0.0152    -0.0283)
    (     1.2240      0.0176    -0.0244)
    (     1.2367      0.0199    -0.0213)
    (     1.2494      0.0225    -0.0185)
    (     1.2585      0.0255    -0.0159)
    (     1.2654      0.0288    -0.0136)
    (     1.2721      0.0324    -0.0118)
    (     1.2793      0.0362    -0.0103)
    (     1.2864      0.0402    -0.0088)
    (     1.2906      0.0446    -0.0085)
    (     1.2889      0.0497    -0.0106)
    (     1.2815      0.0554    -0.0150)
    (     1.2693      0.0616    -0.0213)
    (     1.2532      0.0683    -0.0293)
    (     1.2340      0.0755    -0.0385)
    (     1.2126      0.0830    -0.0485)
    (     1.1900      0.0909    -0.0590)
    (     1.1669      0.0990    -0.0697)
    (     1.1444      0.1073    -0.0801)
    (     1.1232      0.1158    -0.0900)
    (     1.1041      0.1243    -0.0989)
    (     1.0872      0.1330    -0.1069)
    (     1.0722      0.1417    -0.1141)
    (     1.0591      0.1505    -0.1205)
    (     1.0478      0.1594    -0.1261)
    (     1.0380      0.1683    -0.1311)
    (     1.0297      0.1774    -0.1354)
    (     1.0228      0.1866    -0.1392)
    (     1.0171      0.1959    -0.1425)
    (     1.0125      0.2052    -0.1453)
    (     1.0088      0.2147    -0.1477)
    (     1.0059      0.2243    -0.1497)
    (     1.0037      0.2340    -0.1515)
    (     1.0021      0.2439    -0.1531)
    (     1.0009      0.2538    -0.1544)
    (     1.0000      0.2639    -0.1557)
    (     0.9967      0.3054    -0.1607)
    (     0.9698      0.4177    -0.1812)
    (     0.9263      0.5384    -0.2069)
    (     0.8810      0.6628    -0.2292)
    (     0.8288      0.7873    -0.2491)
    (     0.7619      0.9083    -0.2692)
    (     0.6803      1.0225    -0.2893)
    (     0.5860      1.1262    -0.3086)
    (     0.4815      1.2163    -0.3266)
    (     0.3688      1.2900    -0.3434)
    (     0.2469      1.3462    -0.3589)
    (     0.1181      1.3834    -0.3728)
    (     0.0000      1.3971    -0.3835)
    (    -0.0927      1.3834    -0.3892)
    (    -0.1728      1.3462    -0.3905)
    (    -0.2554      1.2900    -0.3879)
    (    -0.3371      1.2163    -0.3819)
    (    -0.4112      1.1262    -0.3731)
    (    -0.4762      1.0225    -0.3621)
    (    -0.5323      0.9084    -0.3499)
    (    -0.5801      0.7873    -0.3375)
    (    -0.6199      0.6626    -0.3261)
    (    -0.6484      0.5384    -0.3177)
    (    -0.6669      0.4184    -0.3145)
    (    -0.6976      0.3054    -0.3184)
    (    -0.7534      0.2026    -0.3350)
    (    -0.7862      0.1158    -0.3838)
    (    -0.7419      0.0507    -0.4666)
    (    -0.6023      0.0100    -0.5000)
    (    -0.3581     -0.0042    -0.3794)
    (     0.0000      0.0100     0.0000)
);

// ************************************************************************* // 