/*---*- C++ -*-
 *
 * Greenwich OpenFOAM CFD Simulation Package
 *
 * Generated by GWpy v0.1.0.dev-8c9f512
 * Timestamp: 2015-11-25T15:41:15.459013+00:00
 *
 * 
 */

FoamFile             
{ 
    version              2.0 ;
    format               ascii ;
    class                dictionary ;
    object               "AD_5_63_214_mod" ;
}

// * * * * * * * * * * * * * * * * * * * * * * * * * * * * * * * * * * * * * // 

aoa                  
( -180.0  -175.0  -170.0  -165.0  -160.0  -155.0  -150.0  -145.0  -140.0  -135.0  -130.0  -125.0  -120.0  -115.0  -110.0  -105.0  -100.0   -95.0   -90.0   -85.0   -80.0   -75.0   -70.0   -65.0   -60.0   -55.0   -50.0   -45.0   -40.0   -35.0   -30.0   -25.0   -21.0   -20.0   -19.0   -18.0   -17.0   -16.0   -15.0   -14.0   -13.0   -12.0   -11.0   -10.0    -9.5    -9.0    -8.5    -8.0    -7.5    -7.0    -6.5    -6.0    -5.5    -5.0    -4.5    -4.0    -3.5    -3.0    -2.5    -2.0    -1.5    -1.0    -0.5     0.0     0.5     1.0     1.5     2.0     2.5     3.0     3.5     4.0     4.5     5.0     5.5     6.0     6.5     7.0     7.5     8.0     8.5     9.0     9.5    10.0    10.5    11.0    11.5    12.0    12.5    13.0    13.5    14.0    14.5    15.0    15.5    16.0    16.5    17.0    17.5    18.0    18.5    19.0    19.5    20.0    20.5    21.0    21.5    22.0    22.5    23.0    23.5    24.0    24.5    25.0    25.5    26.0    26.5    27.0    27.5    28.0    30.0    35.0    40.0    45.0    50.0    55.0    60.0    65.0    70.0    75.0    80.0    85.0    90.0    95.0   100.0   105.0   110.0   115.0   120.0   125.0   130.0   135.0   140.0   145.0   150.0   155.0   160.0   165.0   170.0   175.0   180.0
);

polars               
(
    (     0.4261     -0.0001     0.3126)
    (     0.7101      0.0100     0.4000)
    (     0.8646      0.0433     0.3561)
    (     0.9021      0.1026     0.2748)
    (     0.8463      0.1887     0.2301)
    (     0.7650      0.2932     0.2167)
    (     0.7178      0.4072     0.2138)
    (     0.6894      0.5277     0.2170)
    (     0.6520      0.6526     0.2259)
    (     0.6044      0.7783     0.2384)
    (     0.5503      0.9003     0.2522)
    (     0.4892      1.0155     0.2663)
    (     0.4196      1.1203     0.2799)
    (     0.3427      1.2115     0.2918)
    (     0.2601      1.2863     0.3012)
    (     0.1742      1.3437     0.3078)
    (     0.0873      1.3826     0.3111)
    (     0.0000      1.3971     0.3095)
    (    -0.0873      1.3826     0.3017)
    (    -0.1742      1.3437     0.2893)
    (    -0.2601      1.2863     0.2740)
    (    -0.3427      1.2115     0.2564)
    (    -0.4196      1.1203     0.2368)
    (    -0.4892      1.0155     0.2161)
    (    -0.5505      0.9004     0.1950)
    (    -0.6044      0.7783     0.1744)
    (    -0.6513      0.6526     0.1548)
    (    -0.6894      0.5277     0.1370)
    (    -0.7206      0.4074     0.1214)
    (    -0.7650      0.2932     0.1082)
    (    -0.8358      0.1882     0.0971)
    (    -0.8912      0.1176     0.0890)
    (    -0.9021      0.1026     0.0870)
    (    -0.9111      0.0889     0.0848)
    (    -0.9180      0.0764     0.0822)
    (    -0.9226      0.0651     0.0786)
    (    -0.9246      0.0549     0.0736)
    (    -0.9237      0.0458     0.0667)
    (    -0.9198      0.0377     0.0573)
    (    -0.9125      0.0306     0.0450)
    (    -0.9016      0.0245     0.0294)
    (    -0.8869      0.0191     0.0100)
    (    -0.8682      0.0147    -0.0138)
    (    -0.8552      0.0128    -0.0265)
    (    -0.8288      0.0114    -0.0353)
    (    -0.7814      0.0107    -0.0367)
    (    -0.7240      0.0103    -0.0349)
    (    -0.6690      0.0099    -0.0344)
    (    -0.6156      0.0094    -0.0350)
    (    -0.5608      0.0090    -0.0353)
    (    -0.5048      0.0087    -0.0354)
    (    -0.4485      0.0084    -0.0356)
    (    -0.3925      0.0080    -0.0360)
    (    -0.3371      0.0074    -0.0364)
    (    -0.2817      0.0067    -0.0369)
    (    -0.2257      0.0060    -0.0375)
    (    -0.1687      0.0054    -0.0381)
    (    -0.1106      0.0052    -0.0387)
    (    -0.0520      0.0051    -0.0393)
    (     0.0067      0.0051    -0.0399)
    (     0.0654      0.0050    -0.0404)
    (     0.1241      0.0050    -0.0410)
    (     0.1828      0.0050    -0.0416)
    (     0.2414      0.0050    -0.0422)
    (     0.3001      0.0051    -0.0428)
    (     0.3587      0.0052    -0.0434)
    (     0.4170      0.0052    -0.0439)
    (     0.4747      0.0054    -0.0443)
    (     0.5321      0.0056    -0.0447)
    (     0.5894      0.0058    -0.0451)
    (     0.6449      0.0062    -0.0453)
    (     0.6970      0.0071    -0.0452)
    (     0.7475      0.0081    -0.0448)
    (     0.7984      0.0090    -0.0444)
    (     0.8501      0.0097    -0.0441)
    (     0.9026      0.0103    -0.0439)
    (     0.9555      0.0108    -0.0437)
    (     1.0084      0.0113    -0.0435)
    (     1.0607      0.0118    -0.0433)
    (     1.1119      0.0123    -0.0430)
    (     1.1611      0.0129    -0.0423)
    (     1.2075      0.0136    -0.0411)
    (     1.2510      0.0143    -0.0395)
    (     1.2915      0.0151    -0.0374)
    (     1.3291      0.0160    -0.0350)
    (     1.3637      0.0170    -0.0323)
    (     1.3954      0.0180    -0.0293)
    (     1.4239      0.0193    -0.0262)
    (     1.4476      0.0209    -0.0233)
    (     1.4661      0.0232    -0.0207)
    (     1.4839      0.0257    -0.0182)
    (     1.5046      0.0282    -0.0158)
    (     1.5217      0.0311    -0.0150)
    (     1.5280      0.0350    -0.0170)
    (     1.5235      0.0400    -0.0217)
    (     1.5097      0.0458    -0.0288)
    (     1.4882      0.0525    -0.0377)
    (     1.4606      0.0598    -0.0481)
    (     1.4287      0.0677    -0.0595)
    (     1.3939      0.0760    -0.0715)
    (     1.3579      0.0847    -0.0836)
    (     1.3223      0.0936    -0.0955)
    (     1.2887      0.1026    -0.1066)
    (     1.2585      0.1117    -0.1166)
    (     1.2317      0.1207    -0.1256)
    (     1.2081      0.1297    -0.1335)
    (     1.1875      0.1388    -0.1405)
    (     1.1697      0.1479    -0.1466)
    (     1.1545      0.1570    -0.1519)
    (     1.1416      0.1662    -0.1564)
    (     1.1309      0.1754    -0.1602)
    (     1.1222      0.1847    -0.1635)
    (     1.1152      0.1941    -0.1661)
    (     1.1096      0.2035    -0.1683)
    (     1.1054      0.2130    -0.1701)
    (     1.1023      0.2226    -0.1716)
    (     1.1000      0.2324    -0.1727)
    (     1.0984      0.2422    -0.1737)
    (     1.0972      0.2521    -0.1745)
    (     1.0928      0.2932    -0.1777)
    (     1.0506      0.4058    -0.1956)
    (     0.9849      0.5277    -0.2200)
    (     0.9247      0.6530    -0.2406)
    (     0.8634      0.7783    -0.2585)
    (     0.7881      0.9002    -0.2772)
    (     0.6988      1.0155    -0.2963)
    (     0.5986      1.1203    -0.3148)
    (     0.4895      1.2115    -0.3323)
    (     0.3732      1.2863    -0.3488)
    (     0.2489      1.3437    -0.3642)
    (     0.1187      1.3826    -0.3784)
    (     0.0000      1.3971    -0.3891)
    (    -0.0932      1.3826    -0.3945)
    (    -0.1742      1.3437    -0.3953)
    (    -0.2585      1.2863    -0.3924)
    (    -0.3427      1.2115    -0.3864)
    (    -0.4200      1.1203    -0.3777)
    (    -0.4892      1.0155    -0.3672)
    (    -0.5502      0.9003    -0.3558)
    (    -0.6044      0.7783    -0.3450)
    (    -0.6521      0.6526    -0.3364)
    (    -0.6894      0.5277    -0.3305)
    (    -0.7178      0.4072    -0.3295)
    (    -0.7650      0.2932    -0.3423)
    (    -0.8463      0.1887    -0.3771)
    (    -0.9021      0.1026    -0.4339)
    (    -0.8646      0.0433    -0.4974)
    (    -0.7101      0.0100    -0.5000)
    (    -0.4261     -0.0001    -0.3611)
    (     0.0000      0.0100     0.0000)
);